$DATA1 SOURCE='PrimeSim HSPICE' VERSION='R-2020.12-SP2 linux64' PARAM_COUNT=0
.TITLE '**testbench**'
 rising_delay     falling_delay    delay_avg        temper          
 alter#          
  1.388e-10        2.347e-10        1.867e-10         25.0000       
1               
