 ****** HSPICE -- O-2018.09 linux64 (Aug 26 2018) ******                        
  Copyright (c) 1986 - 2022 by Synopsys, Inc. All Rights Reserved.              
  This software and the associated documentation are proprietary
  to Synopsys, Inc. This software may only be used in accordance
  with the terms and conditions of a written license agreement with
  Synopsys, Inc. All other use, reproduction, or distribution of
  this software is strictly prohibited.
  Input File: read_noise_margin.sp                                              
  Command line options: /usr/cad/synopsys/hspice/cur/hspice/linux64/hspice -i read_noise_margin.sp -o read_noise_margin.lis
 lic:  
 lic: FLEXlm: SDK_11.6.9.6 
 lic: USER:   vlsisj2022063        HOSTNAME: tsri06 
 lic: HOSTID: b4b52fc6a3e9         PID:      19199 
 lic: Using FLEXlm license file: 
 lic: 26585@lstn 
 lic: Checkout 1 hspice 
 lic: License/Maintenance for hspice will expire on 14-may-2025/2021.09 
 lic: 233(in_use)/300(total) FLOATING license(s) on SERVER 26585@lstn 
 lic:   
  **warning** (read_noise_margin.cir:18) Parameter name is not defined in .param. Please enter parameter variable with their respective value/expression.
  **warning** (read_noise_margin.cir:29) Global net name, "gnd", in subckt pin list. The pin will be connected to the local net. Recommend to not use global net names in subckt pin lists.
1****** HSPICE -- O-2018.09 linux64 (Aug 26 2018) ******                        
 ******  
 **testbench**

 ****** circuit name directory
 circuit number to circuit name directory
   number circuitname                     definition         multiplier
        0 main circuit
        1 xread_noise_margin.             read_noise_margin
                                                                 1.00 
 

  
      

Element variations(Local):   element              parameter
 **info** set option symb=1 internally to help for convergence.
 *****************************************************************
 ******  option summary
 ******
 runlvl  = 3         bypass  = 2.0000    
  Opening plot unit= 15
 file=read_noise_margin.pa0

 ******
 **testbench**

 ****** dc transfer curves tnom=  25.000 temp=  25.000 ******
x

 volt         param     
             v2         
    0.          1.8000  
  100.00000u    1.8000  
  200.00000u    1.8000  
  300.00000u    1.8000  
  400.00000u    1.8000  
  500.00000u    1.8000  
  600.00000u    1.8000  
  700.00000u    1.8000  
  800.00000u    1.8000  
  900.00000u    1.8000  
    1.00000m    1.8000  
    1.10000m    1.8000  
    1.20000m    1.8000  
    1.30000m    1.8000  
    1.40000m    1.8000  
    1.50000m    1.8000  
    1.60000m    1.8000  
    1.70000m    1.8000  
    1.80000m    1.8000  
    1.90000m    1.8000  
    2.00000m    1.8000  
    2.10000m    1.8000  
    2.20000m    1.8000  
    2.30000m    1.8000  
    2.40000m    1.8000  
    2.50000m    1.8000  
    2.60000m    1.8000  
    2.70000m    1.8000  
    2.80000m    1.8000  
    2.90000m    1.8000  
    3.00000m    1.8000  
    3.10000m    1.8000  
    3.20000m    1.8000  
    3.30000m    1.8000  
    3.40000m    1.8000  
    3.50000m    1.8000  
    3.60000m    1.8000  
    3.70000m    1.8000  
    3.80000m    1.8000  
    3.90000m    1.8000  
    4.00000m    1.8000  
    4.10000m    1.8000  
    4.20000m    1.8000  
    4.30000m    1.8000  
    4.40000m    1.8000  
    4.50000m    1.8000  
    4.60000m    1.8000  
    4.70000m    1.8000  
    4.80000m    1.8000  
    4.90000m    1.8000  
    5.00000m    1.8000  
    5.10000m    1.8000  
    5.20000m    1.8000  
    5.30000m    1.8000  
    5.40000m    1.8000  
    5.50000m    1.8000  
    5.60000m    1.8000  
    5.70000m    1.8000  
    5.80000m    1.8000  
    5.90000m    1.8000  
    6.00000m    1.8000  
    6.10000m    1.8000  
    6.20000m    1.8000  
    6.30000m    1.8000  
    6.40000m    1.8000  
    6.50000m    1.8000  
    6.60000m    1.8000  
    6.70000m    1.8000  
    6.80000m    1.8000  
    6.90000m    1.8000  
    7.00000m    1.8000  
    7.10000m    1.8000  
    7.20000m    1.8000  
    7.30000m    1.8000  
    7.40000m    1.8000  
    7.50000m    1.8000  
    7.60000m    1.8000  
    7.70000m    1.8000  
    7.80000m    1.8000  
    7.90000m    1.8000  
    8.00000m    1.8000  
    8.10000m    1.8000  
    8.20000m    1.8000  
    8.30000m    1.8000  
    8.40000m    1.8000  
    8.50000m    1.8000  
    8.60000m    1.8000  
    8.70000m    1.8000  
    8.80000m    1.8000  
    8.90000m    1.8000  
    9.00000m    1.8000  
    9.10000m    1.8000  
    9.20000m    1.8000  
    9.30000m    1.8000  
    9.40000m    1.8000  
    9.50000m    1.8000  
    9.60000m    1.8000  
    9.70000m    1.8000  
    9.80000m    1.8000  
    9.90000m    1.8000  
   10.00000m    1.8000  
   10.10000m    1.8000  
   10.20000m    1.8000  
   10.30000m    1.8000  
   10.40000m    1.8000  
   10.50000m    1.8000  
   10.60000m    1.8000  
   10.70000m    1.8000  
   10.80000m    1.8000  
   10.90000m    1.8000  
   11.00000m    1.8000  
   11.10000m    1.8000  
   11.20000m    1.8000  
   11.30000m    1.8000  
   11.40000m    1.8000  
   11.50000m    1.8000  
   11.60000m    1.8000  
   11.70000m    1.8000  
   11.80000m    1.8000  
   11.90000m    1.8000  
   12.00000m    1.8000  
   12.10000m    1.8000  
   12.20000m    1.8000  
   12.30000m    1.8000  
   12.40000m    1.8000  
   12.50000m    1.8000  
   12.60000m    1.8000  
   12.70000m    1.8000  
   12.80000m    1.8000  
   12.90000m    1.8000  
   13.00000m    1.8000  
   13.10000m    1.8000  
   13.20000m    1.8000  
   13.30000m    1.8000  
   13.40000m    1.8000  
   13.50000m    1.8000  
   13.60000m    1.8000  
   13.70000m    1.8000  
   13.80000m    1.8000  
   13.90000m    1.8000  
   14.00000m    1.8000  
   14.10000m    1.8000  
   14.20000m    1.8000  
   14.30000m    1.8000  
   14.40000m    1.8000  
   14.50000m    1.8000  
   14.60000m    1.8000  
   14.70000m    1.8000  
   14.80000m    1.8000  
   14.90000m    1.8000  
   15.00000m    1.8000  
   15.10000m    1.8000  
   15.20000m    1.8000  
   15.30000m    1.8000  
   15.40000m    1.8000  
   15.50000m    1.8000  
   15.60000m    1.8000  
   15.70000m    1.8000  
   15.80000m    1.8000  
   15.90000m    1.8000  
   16.00000m    1.8000  
   16.10000m    1.8000  
   16.20000m    1.8000  
   16.30000m    1.8000  
   16.40000m    1.8000  
   16.50000m    1.8000  
   16.60000m    1.8000  
   16.70000m    1.8000  
   16.80000m    1.8000  
   16.90000m    1.8000  
   17.00000m    1.8000  
   17.10000m    1.8000  
   17.20000m    1.8000  
   17.30000m    1.8000  
   17.40000m    1.8000  
   17.50000m    1.8000  
   17.60000m    1.8000  
   17.70000m    1.8000  
   17.80000m    1.8000  
   17.90000m    1.8000  
   18.00000m    1.8000  
   18.10000m    1.8000  
   18.20000m    1.8000  
   18.30000m    1.8000  
   18.40000m    1.8000  
   18.50000m    1.8000  
   18.60000m    1.8000  
   18.70000m    1.8000  
   18.80000m    1.8000  
   18.90000m    1.8000  
   19.00000m    1.8000  
   19.10000m    1.8000  
   19.20000m    1.8000  
   19.30000m    1.8000  
   19.40000m    1.8000  
   19.50000m    1.8000  
   19.60000m    1.8000  
   19.70000m    1.8000  
   19.80000m    1.8000  
   19.90000m    1.8000  
   20.00000m    1.8000  
   20.10000m    1.8000  
   20.20000m    1.8000  
   20.30000m    1.8000  
   20.40000m    1.8000  
   20.50000m    1.8000  
   20.60000m    1.8000  
   20.70000m    1.8000  
   20.80000m    1.8000  
   20.90000m    1.8000  
   21.00000m    1.8000  
   21.10000m    1.8000  
   21.20000m    1.8000  
   21.30000m    1.8000  
   21.40000m    1.8000  
   21.50000m    1.8000  
   21.60000m    1.8000  
   21.70000m    1.8000  
   21.80000m    1.8000  
   21.90000m    1.8000  
   22.00000m    1.8000  
   22.10000m    1.8000  
   22.20000m    1.8000  
   22.30000m    1.8000  
   22.40000m    1.8000  
   22.50000m    1.8000  
   22.60000m    1.8000  
   22.70000m    1.8000  
   22.80000m    1.8000  
   22.90000m    1.8000  
   23.00000m    1.8000  
   23.10000m    1.8000  
   23.20000m    1.8000  
   23.30000m    1.8000  
   23.40000m    1.8000  
   23.50000m    1.8000  
   23.60000m    1.8000  
   23.70000m    1.8000  
   23.80000m    1.8000  
   23.90000m    1.8000  
   24.00000m    1.8000  
   24.10000m    1.8000  
   24.20000m    1.8000  
   24.30000m    1.8000  
   24.40000m    1.8000  
   24.50000m    1.8000  
   24.60000m    1.8000  
   24.70000m    1.8000  
   24.80000m    1.8000  
   24.90000m    1.8000  
   25.00000m    1.8000  
   25.10000m    1.8000  
   25.20000m    1.8000  
   25.30000m    1.8000  
   25.40000m    1.8000  
   25.50000m    1.8000  
   25.60000m    1.8000  
   25.70000m    1.8000  
   25.80000m    1.8000  
   25.90000m    1.8000  
   26.00000m    1.8000  
   26.10000m    1.8000  
   26.20000m    1.8000  
   26.30000m    1.8000  
   26.40000m    1.8000  
   26.50000m    1.8000  
   26.60000m    1.8000  
   26.70000m    1.8000  
   26.80000m    1.8000  
   26.90000m    1.8000  
   27.00000m    1.8000  
   27.10000m    1.8000  
   27.20000m    1.8000  
   27.30000m    1.8000  
   27.40000m    1.8000  
   27.50000m    1.8000  
   27.60000m    1.8000  
   27.70000m    1.8000  
   27.80000m    1.8000  
   27.90000m    1.8000  
   28.00000m    1.8000  
   28.10000m    1.8000  
   28.20000m    1.8000  
   28.30000m    1.8000  
   28.40000m    1.8000  
   28.50000m    1.8000  
   28.60000m    1.8000  
   28.70000m    1.8000  
   28.80000m    1.8000  
   28.90000m    1.8000  
   29.00000m    1.8000  
   29.10000m    1.8000  
   29.20000m    1.8000  
   29.30000m    1.8000  
   29.40000m    1.8000  
   29.50000m    1.8000  
   29.60000m    1.8000  
   29.70000m    1.8000  
   29.80000m    1.8000  
   29.90000m    1.8000  
   30.00000m    1.8000  
   30.10000m    1.8000  
   30.20000m    1.8000  
   30.30000m    1.8000  
   30.40000m    1.8000  
   30.50000m    1.8000  
   30.60000m    1.8000  
   30.70000m    1.8000  
   30.80000m    1.8000  
   30.90000m    1.8000  
   31.00000m    1.8000  
   31.10000m    1.8000  
   31.20000m    1.8000  
   31.30000m    1.8000  
   31.40000m    1.8000  
   31.50000m    1.8000  
   31.60000m    1.8000  
   31.70000m    1.8000  
   31.80000m    1.8000  
   31.90000m    1.8000  
   32.00000m    1.8000  
   32.10000m    1.8000  
   32.20000m    1.8000  
   32.30000m    1.8000  
   32.40000m    1.8000  
   32.50000m    1.8000  
   32.60000m    1.8000  
   32.70000m    1.8000  
   32.80000m    1.8000  
   32.90000m    1.8000  
   33.00000m    1.8000  
   33.10000m    1.8000  
   33.20000m    1.8000  
   33.30000m    1.8000  
   33.40000m    1.8000  
   33.50000m    1.8000  
   33.60000m    1.8000  
   33.70000m    1.8000  
   33.80000m    1.8000  
   33.90000m    1.8000  
   34.00000m    1.8000  
   34.10000m    1.8000  
   34.20000m    1.8000  
   34.30000m    1.8000  
   34.40000m    1.8000  
   34.50000m    1.8000  
   34.60000m    1.8000  
   34.70000m    1.8000  
   34.80000m    1.8000  
   34.90000m    1.8000  
   35.00000m    1.8000  
   35.10000m    1.8000  
   35.20000m    1.8000  
   35.30000m    1.8000  
   35.40000m    1.8000  
   35.50000m    1.8000  
   35.60000m    1.8000  
   35.70000m    1.8000  
   35.80000m    1.8000  
   35.90000m    1.8000  
   36.00000m    1.8000  
   36.10000m    1.8000  
   36.20000m    1.8000  
   36.30000m    1.8000  
   36.40000m    1.8000  
   36.50000m    1.8000  
   36.60000m    1.8000  
   36.70000m    1.8000  
   36.80000m    1.8000  
   36.90000m    1.8000  
   37.00000m    1.8000  
   37.10000m    1.8000  
   37.20000m    1.8000  
   37.30000m    1.8000  
   37.40000m    1.8000  
   37.50000m    1.8000  
   37.60000m    1.8000  
   37.70000m    1.8000  
   37.80000m    1.8000  
   37.90000m    1.8000  
   38.00000m    1.8000  
   38.10000m    1.8000  
   38.20000m    1.8000  
   38.30000m    1.8000  
   38.40000m    1.8000  
   38.50000m    1.8000  
   38.60000m    1.8000  
   38.70000m    1.8000  
   38.80000m    1.8000  
   38.90000m    1.8000  
   39.00000m    1.8000  
   39.10000m    1.8000  
   39.20000m    1.8000  
   39.30000m    1.8000  
   39.40000m    1.8000  
   39.50000m    1.8000  
   39.60000m    1.8000  
   39.70000m    1.8000  
   39.80000m    1.8000  
   39.90000m    1.8000  
   40.00000m    1.8000  
   40.10000m    1.8000  
   40.20000m    1.8000  
   40.30000m    1.8000  
   40.40000m    1.8000  
   40.50000m    1.8000  
   40.60000m    1.8000  
   40.70000m    1.8000  
   40.80000m    1.8000  
   40.90000m    1.8000  
   41.00000m    1.8000  
   41.10000m    1.8000  
   41.20000m    1.8000  
   41.30000m    1.8000  
   41.40000m    1.8000  
   41.50000m    1.8000  
   41.60000m    1.8000  
   41.70000m    1.8000  
   41.80000m    1.8000  
   41.90000m    1.8000  
   42.00000m    1.8000  
   42.10000m    1.8000  
   42.20000m    1.8000  
   42.30000m    1.8000  
   42.40000m    1.8000  
   42.50000m    1.8000  
   42.60000m    1.8000  
   42.70000m    1.8000  
   42.80000m    1.8000  
   42.90000m    1.8000  
   43.00000m    1.8000  
   43.10000m    1.8000  
   43.20000m    1.8000  
   43.30000m    1.8000  
   43.40000m    1.8000  
   43.50000m    1.8000  
   43.60000m    1.8000  
   43.70000m    1.8000  
   43.80000m    1.8000  
   43.90000m    1.8000  
   44.00000m    1.8000  
   44.10000m    1.8000  
   44.20000m    1.8000  
   44.30000m    1.8000  
   44.40000m    1.8000  
   44.50000m    1.8000  
   44.60000m    1.8000  
   44.70000m    1.8000  
   44.80000m    1.8000  
   44.90000m    1.8000  
   45.00000m    1.8000  
   45.10000m    1.8000  
   45.20000m    1.8000  
   45.30000m    1.8000  
   45.40000m    1.8000  
   45.50000m    1.8000  
   45.60000m    1.8000  
   45.70000m    1.8000  
   45.80000m    1.8000  
   45.90000m    1.8000  
   46.00000m    1.8000  
   46.10000m    1.8000  
   46.20000m    1.8000  
   46.30000m    1.8000  
   46.40000m    1.8000  
   46.50000m    1.8000  
   46.60000m    1.8000  
   46.70000m    1.8000  
   46.80000m    1.8000  
   46.90000m    1.8000  
   47.00000m    1.8000  
   47.10000m    1.8000  
   47.20000m    1.8000  
   47.30000m    1.8000  
   47.40000m    1.8000  
   47.50000m    1.8000  
   47.60000m    1.8000  
   47.70000m    1.8000  
   47.80000m    1.8000  
   47.90000m    1.8000  
   48.00000m    1.8000  
   48.10000m    1.8000  
   48.20000m    1.8000  
   48.30000m    1.8000  
   48.40000m    1.8000  
   48.50000m    1.8000  
   48.60000m    1.8000  
   48.70000m    1.8000  
   48.80000m    1.8000  
   48.90000m    1.8000  
   49.00000m    1.8000  
   49.10000m    1.8000  
   49.20000m    1.8000  
   49.30000m    1.8000  
   49.40000m    1.8000  
   49.50000m    1.8000  
   49.60000m    1.8000  
   49.70000m    1.8000  
   49.80000m    1.8000  
   49.90000m    1.8000  
   50.00000m    1.8000  
   50.10000m    1.8000  
   50.20000m    1.8000  
   50.30000m    1.8000  
   50.40000m    1.8000  
   50.50000m    1.8000  
   50.60000m    1.8000  
   50.70000m    1.8000  
   50.80000m    1.8000  
   50.90000m    1.8000  
   51.00000m    1.8000  
   51.10000m    1.8000  
   51.20000m    1.8000  
   51.30000m    1.8000  
   51.40000m    1.8000  
   51.50000m    1.8000  
   51.60000m    1.8000  
   51.70000m    1.8000  
   51.80000m    1.8000  
   51.90000m    1.8000  
   52.00000m    1.8000  
   52.10000m    1.8000  
   52.20000m    1.8000  
   52.30000m    1.8000  
   52.40000m    1.8000  
   52.50000m    1.8000  
   52.60000m    1.8000  
   52.70000m    1.8000  
   52.80000m    1.8000  
   52.90000m    1.8000  
   53.00000m    1.8000  
   53.10000m    1.8000  
   53.20000m    1.8000  
   53.30000m    1.8000  
   53.40000m    1.8000  
   53.50000m    1.8000  
   53.60000m    1.8000  
   53.70000m    1.8000  
   53.80000m    1.8000  
   53.90000m    1.8000  
   54.00000m    1.8000  
   54.10000m    1.8000  
   54.20000m    1.8000  
   54.30000m    1.8000  
   54.40000m    1.8000  
   54.50000m    1.8000  
   54.60000m    1.8000  
   54.70000m    1.8000  
   54.80000m    1.8000  
   54.90000m    1.8000  
   55.00000m    1.8000  
   55.10000m    1.8000  
   55.20000m    1.8000  
   55.30000m    1.8000  
   55.40000m    1.8000  
   55.50000m    1.8000  
   55.60000m    1.8000  
   55.70000m    1.8000  
   55.80000m    1.8000  
   55.90000m    1.8000  
   56.00000m    1.8000  
   56.10000m    1.8000  
   56.20000m    1.8000  
   56.30000m    1.8000  
   56.40000m    1.8000  
   56.50000m    1.8000  
   56.60000m    1.8000  
   56.70000m    1.8000  
   56.80000m    1.8000  
   56.90000m    1.8000  
   57.00000m    1.8000  
   57.10000m    1.8000  
   57.20000m    1.8000  
   57.30000m    1.8000  
   57.40000m    1.8000  
   57.50000m    1.8000  
   57.60000m    1.8000  
   57.70000m    1.8000  
   57.80000m    1.8000  
   57.90000m    1.8000  
   58.00000m    1.8000  
   58.10000m    1.8000  
   58.20000m    1.8000  
   58.30000m    1.8000  
   58.40000m    1.8000  
   58.50000m    1.8000  
   58.60000m    1.8000  
   58.70000m    1.8000  
   58.80000m    1.8000  
   58.90000m    1.8000  
   59.00000m    1.8000  
   59.10000m    1.8000  
   59.20000m    1.8000  
   59.30000m    1.8000  
   59.40000m    1.8000  
   59.50000m    1.8000  
   59.60000m    1.8000  
   59.70000m    1.8000  
   59.80000m    1.8000  
   59.90000m    1.8000  
   60.00000m    1.8000  
   60.10000m    1.8000  
   60.20000m    1.8000  
   60.30000m    1.8000  
   60.40000m    1.8000  
   60.50000m    1.8000  
   60.60000m    1.8000  
   60.70000m    1.8000  
   60.80000m    1.8000  
   60.90000m    1.8000  
   61.00000m    1.8000  
   61.10000m    1.8000  
   61.20000m    1.8000  
   61.30000m    1.8000  
   61.40000m    1.8000  
   61.50000m    1.8000  
   61.60000m    1.8000  
   61.70000m    1.8000  
   61.80000m    1.8000  
   61.90000m    1.8000  
   62.00000m    1.8000  
   62.10000m    1.8000  
   62.20000m    1.8000  
   62.30000m    1.8000  
   62.40000m    1.8000  
   62.50000m    1.8000  
   62.60000m    1.8000  
   62.70000m    1.8000  
   62.80000m    1.8000  
   62.90000m    1.8000  
   63.00000m    1.8000  
   63.10000m    1.8000  
   63.20000m    1.8000  
   63.30000m    1.8000  
   63.40000m    1.8000  
   63.50000m    1.8000  
   63.60000m    1.8000  
   63.70000m    1.8000  
   63.80000m    1.8000  
   63.90000m    1.8000  
   64.00000m    1.8000  
   64.10000m    1.8000  
   64.20000m    1.8000  
   64.30000m    1.8000  
   64.40000m    1.8000  
   64.50000m    1.8000  
   64.60000m    1.8000  
   64.70000m    1.8000  
   64.80000m    1.8000  
   64.90000m    1.8000  
   65.00000m    1.8000  
   65.10000m    1.8000  
   65.20000m    1.8000  
   65.30000m    1.8000  
   65.40000m    1.8000  
   65.50000m    1.8000  
   65.60000m    1.8000  
   65.70000m    1.8000  
   65.80000m    1.8000  
   65.90000m    1.8000  
   66.00000m    1.8000  
   66.10000m    1.8000  
   66.20000m    1.8000  
   66.30000m    1.8000  
   66.40000m    1.8000  
   66.50000m    1.8000  
   66.60000m    1.8000  
   66.70000m    1.8000  
   66.80000m    1.8000  
   66.90000m    1.8000  
   67.00000m    1.8000  
   67.10000m    1.8000  
   67.20000m    1.8000  
   67.30000m    1.8000  
   67.40000m    1.8000  
   67.50000m    1.8000  
   67.60000m    1.8000  
   67.70000m    1.8000  
   67.80000m    1.8000  
   67.90000m    1.8000  
   68.00000m    1.8000  
   68.10000m    1.8000  
   68.20000m    1.8000  
   68.30000m    1.8000  
   68.40000m    1.8000  
   68.50000m    1.8000  
   68.60000m    1.8000  
   68.70000m    1.8000  
   68.80000m    1.8000  
   68.90000m    1.8000  
   69.00000m    1.8000  
   69.10000m    1.8000  
   69.20000m    1.8000  
   69.30000m    1.8000  
   69.40000m    1.8000  
   69.50000m    1.8000  
   69.60000m    1.8000  
   69.70000m    1.8000  
   69.80000m    1.8000  
   69.90000m    1.8000  
   70.00000m    1.8000  
   70.10000m    1.8000  
   70.20000m    1.8000  
   70.30000m    1.8000  
   70.40000m    1.8000  
   70.50000m    1.8000  
   70.60000m    1.8000  
   70.70000m    1.8000  
   70.80000m    1.8000  
   70.90000m    1.8000  
   71.00000m    1.8000  
   71.10000m    1.8000  
   71.20000m    1.8000  
   71.30000m    1.8000  
   71.40000m    1.8000  
   71.50000m    1.8000  
   71.60000m    1.8000  
   71.70000m    1.8000  
   71.80000m    1.8000  
   71.90000m    1.8000  
   72.00000m    1.8000  
   72.10000m    1.8000  
   72.20000m    1.8000  
   72.30000m    1.8000  
   72.40000m    1.8000  
   72.50000m    1.8000  
   72.60000m    1.8000  
   72.70000m    1.8000  
   72.80000m    1.8000  
   72.90000m    1.8000  
   73.00000m    1.8000  
   73.10000m    1.8000  
   73.20000m    1.8000  
   73.30000m    1.8000  
   73.40000m    1.8000  
   73.50000m    1.8000  
   73.60000m    1.8000  
   73.70000m    1.8000  
   73.80000m    1.8000  
   73.90000m    1.8000  
   74.00000m    1.8000  
   74.10000m    1.8000  
   74.20000m    1.8000  
   74.30000m    1.8000  
   74.40000m    1.8000  
   74.50000m    1.8000  
   74.60000m    1.8000  
   74.70000m    1.8000  
   74.80000m    1.8000  
   74.90000m    1.8000  
   75.00000m    1.8000  
   75.10000m    1.8000  
   75.20000m    1.8000  
   75.30000m    1.8000  
   75.40000m    1.8000  
   75.50000m    1.8000  
   75.60000m    1.8000  
   75.70000m    1.8000  
   75.80000m    1.8000  
   75.90000m    1.8000  
   76.00000m    1.8000  
   76.10000m    1.8000  
   76.20000m    1.8000  
   76.30000m    1.8000  
   76.40000m    1.8000  
   76.50000m    1.8000  
   76.60000m    1.8000  
   76.70000m    1.8000  
   76.80000m    1.8000  
   76.90000m    1.8000  
   77.00000m    1.8000  
   77.10000m    1.8000  
   77.20000m    1.8000  
   77.30000m    1.8000  
   77.40000m    1.8000  
   77.50000m    1.8000  
   77.60000m    1.8000  
   77.70000m    1.8000  
   77.80000m    1.8000  
   77.90000m    1.8000  
   78.00000m    1.8000  
   78.10000m    1.8000  
   78.20000m    1.8000  
   78.30000m    1.8000  
   78.40000m    1.8000  
   78.50000m    1.8000  
   78.60000m    1.8000  
   78.70000m    1.8000  
   78.80000m    1.8000  
   78.90000m    1.8000  
   79.00000m    1.8000  
   79.10000m    1.8000  
   79.20000m    1.8000  
   79.30000m    1.8000  
   79.40000m    1.8000  
   79.50000m    1.8000  
   79.60000m    1.8000  
   79.70000m    1.8000  
   79.80000m    1.8000  
   79.90000m    1.8000  
   80.00000m    1.8000  
   80.10000m    1.8000  
   80.20000m    1.8000  
   80.30000m    1.8000  
   80.40000m    1.8000  
   80.50000m    1.8000  
   80.60000m    1.8000  
   80.70000m    1.8000  
   80.80000m    1.8000  
   80.90000m    1.8000  
   81.00000m    1.8000  
   81.10000m    1.8000  
   81.20000m    1.8000  
   81.30000m    1.8000  
   81.40000m    1.8000  
   81.50000m    1.8000  
   81.60000m    1.8000  
   81.70000m    1.8000  
   81.80000m    1.8000  
   81.90000m    1.8000  
   82.00000m    1.8000  
   82.10000m    1.8000  
   82.20000m    1.8000  
   82.30000m    1.8000  
   82.40000m    1.8000  
   82.50000m    1.8000  
   82.60000m    1.8000  
   82.70000m    1.8000  
   82.80000m    1.8000  
   82.90000m    1.8000  
   83.00000m    1.8000  
   83.10000m    1.8000  
   83.20000m    1.8000  
   83.30000m    1.8000  
   83.40000m    1.8000  
   83.50000m    1.8000  
   83.60000m    1.8000  
   83.70000m    1.8000  
   83.80000m    1.8000  
   83.90000m    1.8000  
   84.00000m    1.8000  
   84.10000m    1.8000  
   84.20000m    1.8000  
   84.30000m    1.8000  
   84.40000m    1.8000  
   84.50000m    1.8000  
   84.60000m    1.8000  
   84.70000m    1.8000  
   84.80000m    1.8000  
   84.90000m    1.8000  
   85.00000m    1.8000  
   85.10000m    1.8000  
   85.20000m    1.8000  
   85.30000m    1.8000  
   85.40000m    1.8000  
   85.50000m    1.8000  
   85.60000m    1.8000  
   85.70000m    1.8000  
   85.80000m    1.8000  
   85.90000m    1.8000  
   86.00000m    1.8000  
   86.10000m    1.8000  
   86.20000m    1.8000  
   86.30000m    1.8000  
   86.40000m    1.8000  
   86.50000m    1.8000  
   86.60000m    1.8000  
   86.70000m    1.8000  
   86.80000m    1.8000  
   86.90000m    1.8000  
   87.00000m    1.8000  
   87.10000m    1.8000  
   87.20000m    1.8000  
   87.30000m    1.8000  
   87.40000m    1.8000  
   87.50000m    1.8000  
   87.60000m    1.8000  
   87.70000m    1.8000  
   87.80000m    1.8000  
   87.90000m    1.8000  
   88.00000m    1.8000  
   88.10000m    1.8000  
   88.20000m    1.8000  
   88.30000m    1.8000  
   88.40000m    1.8000  
   88.50000m    1.8000  
   88.60000m    1.8000  
   88.70000m    1.8000  
   88.80000m    1.8000  
   88.90000m    1.8000  
   89.00000m    1.8000  
   89.10000m    1.8000  
   89.20000m    1.8000  
   89.30000m    1.8000  
   89.40000m    1.8000  
   89.50000m    1.8000  
   89.60000m    1.8000  
   89.70000m    1.8000  
   89.80000m    1.8000  
   89.90000m    1.8000  
   90.00000m    1.8000  
   90.10000m    1.8000  
   90.20000m    1.8000  
   90.30000m    1.8000  
   90.40000m    1.8000  
   90.50000m    1.8000  
   90.60000m    1.8000  
   90.70000m    1.8000  
   90.80000m    1.8000  
   90.90000m    1.8000  
   91.00000m    1.8000  
   91.10000m    1.8000  
   91.20000m    1.8000  
   91.30000m    1.8000  
   91.40000m    1.8000  
   91.50000m    1.8000  
   91.60000m    1.8000  
   91.70000m    1.8000  
   91.80000m    1.8000  
   91.90000m    1.8000  
   92.00000m    1.8000  
   92.10000m    1.8000  
   92.20000m    1.8000  
   92.30000m    1.8000  
   92.40000m    1.8000  
   92.50000m    1.8000  
   92.60000m    1.8000  
   92.70000m    1.8000  
   92.80000m    1.8000  
   92.90000m    1.8000  
   93.00000m    1.8000  
   93.10000m    1.8000  
   93.20000m    1.8000  
   93.30000m    1.8000  
   93.40000m    1.8000  
   93.50000m    1.8000  
   93.60000m    1.8000  
   93.70000m    1.8000  
   93.80000m    1.8000  
   93.90000m    1.8000  
   94.00000m    1.8000  
   94.10000m    1.8000  
   94.20000m    1.8000  
   94.30000m    1.8000  
   94.40000m    1.8000  
   94.50000m    1.8000  
   94.60000m    1.8000  
   94.70000m    1.8000  
   94.80000m    1.8000  
   94.90000m    1.8000  
   95.00000m    1.8000  
   95.10000m    1.8000  
   95.20000m    1.8000  
   95.30000m    1.8000  
   95.40000m    1.8000  
   95.50000m    1.8000  
   95.60000m    1.8000  
   95.70000m    1.8000  
   95.80000m    1.8000  
   95.90000m    1.8000  
   96.00000m    1.8000  
   96.10000m    1.8000  
   96.20000m    1.8000  
   96.30000m    1.8000  
   96.40000m    1.8000  
   96.50000m    1.8000  
   96.60000m    1.8000  
   96.70000m    1.8000  
   96.80000m    1.8000  
   96.90000m    1.8000  
   97.00000m    1.8000  
   97.10000m    1.8000  
   97.20000m    1.8000  
   97.30000m    1.8000  
   97.40000m    1.8000  
   97.50000m    1.8000  
   97.60000m    1.8000  
   97.70000m    1.8000  
   97.80000m    1.8000  
   97.90000m    1.8000  
   98.00000m    1.8000  
   98.10000m    1.8000  
   98.20000m    1.8000  
   98.30000m    1.8000  
   98.40000m    1.8000  
   98.50000m    1.8000  
   98.60000m    1.8000  
   98.70000m    1.8000  
   98.80000m    1.8000  
   98.90000m    1.8000  
   99.00000m    1.8000  
   99.10000m    1.8000  
   99.20000m    1.8000  
   99.30000m    1.8000  
   99.40000m    1.8000  
   99.50000m    1.8000  
   99.60000m    1.8000  
   99.70000m    1.8000  
   99.80000m    1.8000  
   99.90000m    1.8000  
  100.00000m    1.8000  
  100.10000m    1.8000  
  100.20000m    1.8000  
  100.30000m    1.8000  
  100.40000m    1.8000  
  100.50000m    1.8000  
  100.60000m    1.8000  
  100.70000m    1.8000  
  100.80000m    1.8000  
  100.90000m    1.8000  
  101.00000m    1.8000  
  101.10000m    1.8000  
  101.20000m    1.8000  
  101.30000m    1.8000  
  101.40000m    1.8000  
  101.50000m    1.8000  
  101.60000m    1.8000  
  101.70000m    1.8000  
  101.80000m    1.8000  
  101.90000m    1.8000  
  102.00000m    1.8000  
  102.10000m    1.8000  
  102.20000m    1.8000  
  102.30000m    1.8000  
  102.40000m    1.8000  
  102.50000m    1.8000  
  102.60000m    1.8000  
  102.70000m    1.8000  
  102.80000m    1.8000  
  102.90000m    1.8000  
  103.00000m    1.8000  
  103.10000m    1.8000  
  103.20000m    1.8000  
  103.30000m    1.8000  
  103.40000m    1.8000  
  103.50000m    1.8000  
  103.60000m    1.8000  
  103.70000m    1.8000  
  103.80000m    1.8000  
  103.90000m    1.8000  
  104.00000m    1.8000  
  104.10000m    1.8000  
  104.20000m    1.8000  
  104.30000m    1.8000  
  104.40000m    1.8000  
  104.50000m    1.8000  
  104.60000m    1.8000  
  104.70000m    1.8000  
  104.80000m    1.8000  
  104.90000m    1.8000  
  105.00000m    1.8000  
  105.10000m    1.8000  
  105.20000m    1.8000  
  105.30000m    1.8000  
  105.40000m    1.8000  
  105.50000m    1.8000  
  105.60000m    1.8000  
  105.70000m    1.8000  
  105.80000m    1.8000  
  105.90000m    1.8000  
  106.00000m    1.8000  
  106.10000m    1.8000  
  106.20000m    1.8000  
  106.30000m    1.8000  
  106.40000m    1.8000  
  106.50000m    1.8000  
  106.60000m    1.8000  
  106.70000m    1.8000  
  106.80000m    1.8000  
  106.90000m    1.8000  
  107.00000m    1.8000  
  107.10000m    1.8000  
  107.20000m    1.8000  
  107.30000m    1.8000  
  107.40000m    1.8000  
  107.50000m    1.8000  
  107.60000m    1.8000  
  107.70000m    1.8000  
  107.80000m    1.8000  
  107.90000m    1.8000  
  108.00000m    1.8000  
  108.10000m    1.8000  
  108.20000m    1.8000  
  108.30000m    1.8000  
  108.40000m    1.8000  
  108.50000m    1.8000  
  108.60000m    1.8000  
  108.70000m    1.8000  
  108.80000m    1.8000  
  108.90000m    1.8000  
  109.00000m    1.8000  
  109.10000m    1.8000  
  109.20000m    1.8000  
  109.30000m    1.8000  
  109.40000m    1.8000  
  109.50000m    1.8000  
  109.60000m    1.8000  
  109.70000m    1.8000  
  109.80000m    1.8000  
  109.90000m    1.8000  
  110.00000m    1.8000  
  110.10000m    1.8000  
  110.20000m    1.8000  
  110.30000m    1.8000  
  110.40000m    1.8000  
  110.50000m    1.8000  
  110.60000m    1.8000  
  110.70000m    1.8000  
  110.80000m    1.8000  
  110.90000m    1.8000  
  111.00000m    1.8000  
  111.10000m    1.8000  
  111.20000m    1.8000  
  111.30000m    1.8000  
  111.40000m    1.8000  
  111.50000m    1.8000  
  111.60000m    1.8000  
  111.70000m    1.8000  
  111.80000m    1.8000  
  111.90000m    1.8000  
  112.00000m    1.8000  
  112.10000m    1.8000  
  112.20000m    1.8000  
  112.30000m    1.8000  
  112.40000m    1.8000  
  112.50000m    1.8000  
  112.60000m    1.8000  
  112.70000m    1.8000  
  112.80000m    1.8000  
  112.90000m    1.8000  
  113.00000m    1.8000  
  113.10000m    1.8000  
  113.20000m    1.8000  
  113.30000m    1.8000  
  113.40000m    1.8000  
  113.50000m    1.8000  
  113.60000m    1.8000  
  113.70000m    1.8000  
  113.80000m    1.8000  
  113.90000m    1.8000  
  114.00000m    1.8000  
  114.10000m    1.8000  
  114.20000m    1.8000  
  114.30000m    1.8000  
  114.40000m    1.8000  
  114.50000m    1.8000  
  114.60000m    1.8000  
  114.70000m    1.8000  
  114.80000m    1.8000  
  114.90000m    1.8000  
  115.00000m    1.8000  
  115.10000m    1.8000  
  115.20000m    1.8000  
  115.30000m    1.8000  
  115.40000m    1.8000  
  115.50000m    1.8000  
  115.60000m    1.8000  
  115.70000m    1.8000  
  115.80000m    1.8000  
  115.90000m    1.8000  
  116.00000m    1.8000  
  116.10000m    1.8000  
  116.20000m    1.8000  
  116.30000m    1.8000  
  116.40000m    1.8000  
  116.50000m    1.8000  
  116.60000m    1.8000  
  116.70000m    1.8000  
  116.80000m    1.8000  
  116.90000m    1.8000  
  117.00000m    1.8000  
  117.10000m    1.8000  
  117.20000m    1.8000  
  117.30000m    1.8000  
  117.40000m    1.8000  
  117.50000m    1.8000  
  117.60000m    1.8000  
  117.70000m    1.8000  
  117.80000m    1.8000  
  117.90000m    1.8000  
  118.00000m    1.8000  
  118.10000m    1.8000  
  118.20000m    1.8000  
  118.30000m    1.8000  
  118.40000m    1.8000  
  118.50000m    1.8000  
  118.60000m    1.8000  
  118.70000m    1.8000  
  118.80000m    1.8000  
  118.90000m    1.8000  
  119.00000m    1.8000  
  119.10000m    1.8000  
  119.20000m    1.8000  
  119.30000m    1.8000  
  119.40000m    1.8000  
  119.50000m    1.8000  
  119.60000m    1.8000  
  119.70000m    1.8000  
  119.80000m    1.8000  
  119.90000m    1.8000  
  120.00000m    1.8000  
  120.10000m    1.8000  
  120.20000m    1.8000  
  120.30000m    1.8000  
  120.40000m    1.8000  
  120.50000m    1.8000  
  120.60000m    1.8000  
  120.70000m    1.8000  
  120.80000m    1.8000  
  120.90000m    1.8000  
  121.00000m    1.8000  
  121.10000m    1.8000  
  121.20000m    1.8000  
  121.30000m    1.8000  
  121.40000m    1.8000  
  121.50000m    1.8000  
  121.60000m    1.8000  
  121.70000m    1.8000  
  121.80000m    1.8000  
  121.90000m    1.8000  
  122.00000m    1.8000  
  122.10000m    1.8000  
  122.20000m    1.8000  
  122.30000m    1.8000  
  122.40000m    1.8000  
  122.50000m    1.8000  
  122.60000m    1.8000  
  122.70000m    1.8000  
  122.80000m    1.8000  
  122.90000m    1.8000  
  123.00000m    1.8000  
  123.10000m    1.8000  
  123.20000m    1.8000  
  123.30000m    1.8000  
  123.40000m    1.8000  
  123.50000m    1.8000  
  123.60000m    1.8000  
  123.70000m    1.8000  
  123.80000m    1.8000  
  123.90000m    1.8000  
  124.00000m    1.8000  
  124.10000m    1.8000  
  124.20000m    1.8000  
  124.30000m    1.8000  
  124.40000m    1.8000  
  124.50000m    1.8000  
  124.60000m    1.8000  
  124.70000m    1.8000  
  124.80000m    1.8000  
  124.90000m    1.8000  
  125.00000m    1.8000  
  125.10000m    1.8000  
  125.20000m    1.8000  
  125.30000m    1.8000  
  125.40000m    1.8000  
  125.50000m    1.8000  
  125.60000m    1.8000  
  125.70000m    1.8000  
  125.80000m    1.8000  
  125.90000m    1.8000  
  126.00000m    1.8000  
  126.10000m    1.8000  
  126.20000m    1.8000  
  126.30000m    1.8000  
  126.40000m    1.8000  
  126.50000m    1.8000  
  126.60000m    1.8000  
  126.70000m    1.8000  
  126.80000m    1.8000  
  126.90000m    1.8000  
  127.00000m    1.8000  
  127.10000m    1.8000  
  127.20000m    1.8000  
  127.30000m    1.8000  
  127.40000m    1.8000  
  127.50000m    1.8000  
  127.60000m    1.8000  
  127.70000m    1.8000  
  127.80000m    1.8000  
  127.90000m    1.8000  
  128.00000m    1.8000  
  128.10000m    1.8000  
  128.20000m    1.8000  
  128.30000m    1.8000  
  128.40000m    1.8000  
  128.50000m    1.8000  
  128.60000m    1.8000  
  128.70000m    1.8000  
  128.80000m    1.8000  
  128.90000m    1.8000  
  129.00000m    1.8000  
  129.10000m    1.8000  
  129.20000m    1.8000  
  129.30000m    1.8000  
  129.40000m    1.8000  
  129.50000m    1.8000  
  129.60000m    1.8000  
  129.70000m    1.8000  
  129.80000m    1.8000  
  129.90000m    1.8000  
  130.00000m    1.8000  
  130.10000m    1.8000  
  130.20000m    1.8000  
  130.30000m    1.8000  
  130.40000m    1.8000  
  130.50000m    1.8000  
  130.60000m    1.8000  
  130.70000m    1.8000  
  130.80000m    1.8000  
  130.90000m    1.8000  
  131.00000m    1.8000  
  131.10000m    1.8000  
  131.20000m    1.8000  
  131.30000m    1.8000  
  131.40000m    1.8000  
  131.50000m    1.8000  
  131.60000m    1.8000  
  131.70000m    1.8000  
  131.80000m    1.8000  
  131.90000m    1.8000  
  132.00000m    1.8000  
  132.10000m    1.8000  
  132.20000m    1.8000  
  132.30000m    1.8000  
  132.40000m    1.8000  
  132.50000m    1.8000  
  132.60000m    1.8000  
  132.70000m    1.8000  
  132.80000m    1.8000  
  132.90000m    1.8000  
  133.00000m    1.8000  
  133.10000m    1.8000  
  133.20000m    1.8000  
  133.30000m    1.8000  
  133.40000m    1.8000  
  133.50000m    1.8000  
  133.60000m    1.8000  
  133.70000m    1.8000  
  133.80000m    1.8000  
  133.90000m    1.8000  
  134.00000m    1.8000  
  134.10000m    1.8000  
  134.20000m    1.8000  
  134.30000m    1.8000  
  134.40000m    1.8000  
  134.50000m    1.8000  
  134.60000m    1.8000  
  134.70000m    1.8000  
  134.80000m    1.8000  
  134.90000m    1.8000  
  135.00000m    1.8000  
  135.10000m    1.8000  
  135.20000m    1.8000  
  135.30000m    1.8000  
  135.40000m    1.8000  
  135.50000m    1.8000  
  135.60000m    1.8000  
  135.70000m    1.8000  
  135.80000m    1.8000  
  135.90000m    1.8000  
  136.00000m    1.8000  
  136.10000m    1.8000  
  136.20000m    1.8000  
  136.30000m    1.8000  
  136.40000m    1.8000  
  136.50000m    1.8000  
  136.60000m    1.8000  
  136.70000m    1.8000  
  136.80000m    1.8000  
  136.90000m    1.8000  
  137.00000m    1.8000  
  137.10000m    1.8000  
  137.20000m    1.8000  
  137.30000m    1.8000  
  137.40000m    1.8000  
  137.50000m    1.8000  
  137.60000m    1.8000  
  137.70000m    1.8000  
  137.80000m    1.8000  
  137.90000m    1.8000  
  138.00000m    1.8000  
  138.10000m    1.8000  
  138.20000m    1.8000  
  138.30000m    1.8000  
  138.40000m    1.8000  
  138.50000m    1.8000  
  138.60000m    1.8000  
  138.70000m    1.8000  
  138.80000m    1.8000  
  138.90000m    1.8000  
  139.00000m    1.8000  
  139.10000m    1.8000  
  139.20000m    1.8000  
  139.30000m    1.8000  
  139.40000m    1.8000  
  139.50000m    1.8000  
  139.60000m    1.8000  
  139.70000m    1.8000  
  139.80000m    1.8000  
  139.90000m    1.8000  
  140.00000m    1.8000  
  140.10000m    1.8000  
  140.20000m    1.8000  
  140.30000m    1.8000  
  140.40000m    1.8000  
  140.50000m    1.8000  
  140.60000m    1.8000  
  140.70000m    1.8000  
  140.80000m    1.8000  
  140.90000m    1.8000  
  141.00000m    1.8000  
  141.10000m    1.8000  
  141.20000m    1.8000  
  141.30000m    1.8000  
  141.40000m    1.8000  
  141.50000m    1.8000  
  141.60000m    1.8000  
  141.70000m    1.8000  
  141.80000m    1.8000  
  141.90000m    1.8000  
  142.00000m    1.8000  
  142.10000m    1.8000  
  142.20000m    1.8000  
  142.30000m    1.8000  
  142.40000m    1.8000  
  142.50000m    1.8000  
  142.60000m    1.8000  
  142.70000m    1.8000  
  142.80000m    1.8000  
  142.90000m    1.8000  
  143.00000m    1.8000  
  143.10000m    1.8000  
  143.20000m    1.8000  
  143.30000m    1.8000  
  143.40000m    1.8000  
  143.50000m    1.8000  
  143.60000m    1.8000  
  143.70000m    1.8000  
  143.80000m    1.8000  
  143.90000m    1.8000  
  144.00000m    1.8000  
  144.10000m    1.8000  
  144.20000m    1.8000  
  144.30000m    1.8000  
  144.40000m    1.8000  
  144.50000m    1.8000  
  144.60000m    1.8000  
  144.70000m    1.8000  
  144.80000m    1.8000  
  144.90000m    1.8000  
  145.00000m    1.8000  
  145.10000m    1.8000  
  145.20000m    1.8000  
  145.30000m    1.8000  
  145.40000m    1.8000  
  145.50000m    1.8000  
  145.60000m    1.8000  
  145.70000m    1.8000  
  145.80000m    1.8000  
  145.90000m    1.8000  
  146.00000m    1.8000  
  146.10000m    1.8000  
  146.20000m    1.8000  
  146.30000m    1.8000  
  146.40000m    1.8000  
  146.50000m    1.8000  
  146.60000m    1.8000  
  146.70000m    1.8000  
  146.80000m    1.8000  
  146.90000m    1.8000  
  147.00000m    1.8000  
  147.10000m    1.8000  
  147.20000m    1.8000  
  147.30000m    1.8000  
  147.40000m    1.8000  
  147.50000m    1.8000  
  147.60000m    1.8000  
  147.70000m    1.8000  
  147.80000m    1.8000  
  147.90000m    1.8000  
  148.00000m    1.8000  
  148.10000m    1.8000  
  148.20000m    1.8000  
  148.30000m    1.8000  
  148.40000m    1.8000  
  148.50000m    1.8000  
  148.60000m    1.8000  
  148.70000m    1.8000  
  148.80000m    1.8000  
  148.90000m    1.8000  
  149.00000m    1.8000  
  149.10000m    1.8000  
  149.20000m    1.8000  
  149.30000m    1.8000  
  149.40000m    1.8000  
  149.50000m    1.8000  
  149.60000m    1.8000  
  149.70000m    1.8000  
  149.80000m    1.8000  
  149.90000m    1.8000  
  150.00000m    1.8000  
  150.10000m    1.8000  
  150.20000m    1.8000  
  150.30000m    1.8000  
  150.40000m    1.8000  
  150.50000m    1.8000  
  150.60000m    1.8000  
  150.70000m    1.8000  
  150.80000m    1.8000  
  150.90000m    1.8000  
  151.00000m    1.8000  
  151.10000m    1.8000  
  151.20000m    1.8000  
  151.30000m    1.8000  
  151.40000m    1.8000  
  151.50000m    1.8000  
  151.60000m    1.8000  
  151.70000m    1.8000  
  151.80000m    1.8000  
  151.90000m    1.8000  
  152.00000m    1.8000  
  152.10000m    1.8000  
  152.20000m    1.8000  
  152.30000m    1.8000  
  152.40000m    1.8000  
  152.50000m    1.8000  
  152.60000m    1.8000  
  152.70000m    1.8000  
  152.80000m    1.8000  
  152.90000m    1.8000  
  153.00000m    1.8000  
  153.10000m    1.8000  
  153.20000m    1.8000  
  153.30000m    1.8000  
  153.40000m    1.8000  
  153.50000m    1.8000  
  153.60000m    1.8000  
  153.70000m    1.8000  
  153.80000m    1.8000  
  153.90000m    1.8000  
  154.00000m    1.8000  
  154.10000m    1.8000  
  154.20000m    1.8000  
  154.30000m    1.8000  
  154.40000m    1.8000  
  154.50000m    1.8000  
  154.60000m    1.8000  
  154.70000m    1.8000  
  154.80000m    1.8000  
  154.90000m    1.8000  
  155.00000m    1.8000  
  155.10000m    1.8000  
  155.20000m    1.8000  
  155.30000m    1.8000  
  155.40000m    1.8000  
  155.50000m    1.8000  
  155.60000m    1.8000  
  155.70000m    1.8000  
  155.80000m    1.8000  
  155.90000m    1.8000  
  156.00000m    1.8000  
  156.10000m    1.8000  
  156.20000m    1.8000  
  156.30000m    1.8000  
  156.40000m    1.8000  
  156.50000m    1.8000  
  156.60000m    1.8000  
  156.70000m    1.8000  
  156.80000m    1.8000  
  156.90000m    1.8000  
  157.00000m    1.8000  
  157.10000m    1.8000  
  157.20000m    1.8000  
  157.30000m    1.8000  
  157.40000m    1.8000  
  157.50000m    1.8000  
  157.60000m    1.8000  
  157.70000m    1.8000  
  157.80000m    1.8000  
  157.90000m    1.8000  
  158.00000m    1.8000  
  158.10000m    1.8000  
  158.20000m    1.8000  
  158.30000m    1.8000  
  158.40000m    1.8000  
  158.50000m    1.8000  
  158.60000m    1.8000  
  158.70000m    1.8000  
  158.80000m    1.8000  
  158.90000m    1.8000  
  159.00000m    1.8000  
  159.10000m    1.8000  
  159.20000m    1.8000  
  159.30000m    1.8000  
  159.40000m    1.8000  
  159.50000m    1.8000  
  159.60000m    1.8000  
  159.70000m    1.8000  
  159.80000m    1.8000  
  159.90000m    1.8000  
  160.00000m    1.8000  
  160.10000m    1.8000  
  160.20000m    1.8000  
  160.30000m    1.8000  
  160.40000m    1.8000  
  160.50000m    1.8000  
  160.60000m    1.8000  
  160.70000m    1.8000  
  160.80000m    1.8000  
  160.90000m    1.8000  
  161.00000m    1.8000  
  161.10000m    1.8000  
  161.20000m    1.8000  
  161.30000m    1.8000  
  161.40000m    1.8000  
  161.50000m    1.8000  
  161.60000m    1.8000  
  161.70000m    1.8000  
  161.80000m    1.8000  
  161.90000m    1.8000  
  162.00000m    1.8000  
  162.10000m    1.8000  
  162.20000m    1.8000  
  162.30000m    1.8000  
  162.40000m    1.8000  
  162.50000m    1.8000  
  162.60000m    1.8000  
  162.70000m    1.8000  
  162.80000m    1.8000  
  162.90000m    1.8000  
  163.00000m    1.8000  
  163.10000m    1.8000  
  163.20000m    1.8000  
  163.30000m    1.8000  
  163.40000m    1.8000  
  163.50000m    1.8000  
  163.60000m    1.8000  
  163.70000m    1.8000  
  163.80000m    1.8000  
  163.90000m    1.8000  
  164.00000m    1.8000  
  164.10000m    1.8000  
  164.20000m    1.8000  
  164.30000m    1.8000  
  164.40000m    1.8000  
  164.50000m    1.8000  
  164.60000m    1.8000  
  164.70000m    1.8000  
  164.80000m    1.8000  
  164.90000m    1.8000  
  165.00000m    1.8000  
  165.10000m    1.8000  
  165.20000m    1.8000  
  165.30000m    1.8000  
  165.40000m    1.8000  
  165.50000m    1.8000  
  165.60000m    1.8000  
  165.70000m    1.8000  
  165.80000m    1.8000  
  165.90000m    1.8000  
  166.00000m    1.8000  
  166.10000m    1.8000  
  166.20000m    1.8000  
  166.30000m    1.8000  
  166.40000m    1.8000  
  166.50000m    1.8000  
  166.60000m    1.8000  
  166.70000m    1.8000  
  166.80000m    1.8000  
  166.90000m    1.8000  
  167.00000m    1.8000  
  167.10000m    1.8000  
  167.20000m    1.8000  
  167.30000m    1.8000  
  167.40000m    1.8000  
  167.50000m    1.8000  
  167.60000m    1.8000  
  167.70000m    1.8000  
  167.80000m    1.8000  
  167.90000m    1.8000  
  168.00000m    1.8000  
  168.10000m    1.8000  
  168.20000m    1.8000  
  168.30000m    1.8000  
  168.40000m    1.8000  
  168.50000m    1.8000  
  168.60000m    1.8000  
  168.70000m    1.8000  
  168.80000m    1.8000  
  168.90000m    1.8000  
  169.00000m    1.8000  
  169.10000m    1.8000  
  169.20000m    1.8000  
  169.30000m    1.8000  
  169.40000m    1.8000  
  169.50000m    1.8000  
  169.60000m    1.8000  
  169.70000m    1.8000  
  169.80000m    1.8000  
  169.90000m    1.8000  
  170.00000m    1.8000  
  170.10000m    1.8000  
  170.20000m    1.8000  
  170.30000m    1.8000  
  170.40000m    1.8000  
  170.50000m    1.8000  
  170.60000m    1.8000  
  170.70000m    1.8000  
  170.80000m    1.8000  
  170.90000m    1.8000  
  171.00000m    1.8000  
  171.10000m    1.8000  
  171.20000m    1.8000  
  171.30000m    1.8000  
  171.40000m    1.8000  
  171.50000m    1.8000  
  171.60000m    1.8000  
  171.70000m    1.8000  
  171.80000m    1.8000  
  171.90000m    1.8000  
  172.00000m    1.8000  
  172.10000m    1.8000  
  172.20000m    1.8000  
  172.30000m    1.8000  
  172.40000m    1.8000  
  172.50000m    1.8000  
  172.60000m    1.8000  
  172.70000m    1.8000  
  172.80000m    1.8000  
  172.90000m    1.8000  
  173.00000m    1.8000  
  173.10000m    1.8000  
  173.20000m    1.8000  
  173.30000m    1.8000  
  173.40000m    1.8000  
  173.50000m    1.8000  
  173.60000m    1.8000  
  173.70000m    1.8000  
  173.80000m    1.8000  
  173.90000m    1.8000  
  174.00000m    1.8000  
  174.10000m    1.8000  
  174.20000m    1.8000  
  174.30000m    1.8000  
  174.40000m    1.8000  
  174.50000m    1.8000  
  174.60000m    1.8000  
  174.70000m    1.8000  
  174.80000m    1.8000  
  174.90000m    1.8000  
  175.00000m    1.8000  
  175.10000m    1.8000  
  175.20000m    1.8000  
  175.30000m    1.8000  
  175.40000m    1.8000  
  175.50000m    1.8000  
  175.60000m    1.8000  
  175.70000m    1.8000  
  175.80000m    1.8000  
  175.90000m    1.8000  
  176.00000m    1.8000  
  176.10000m    1.8000  
  176.20000m    1.8000  
  176.30000m    1.8000  
  176.40000m    1.8000  
  176.50000m    1.8000  
  176.60000m    1.8000  
  176.70000m    1.8000  
  176.80000m    1.8000  
  176.90000m    1.8000  
  177.00000m    1.8000  
  177.10000m    1.8000  
  177.20000m    1.8000  
  177.30000m    1.8000  
  177.40000m    1.8000  
  177.50000m    1.8000  
  177.60000m    1.8000  
  177.70000m    1.8000  
  177.80000m    1.8000  
  177.90000m    1.8000  
  178.00000m    1.8000  
  178.10000m    1.8000  
  178.20000m    1.8000  
  178.30000m    1.8000  
  178.40000m    1.8000  
  178.50000m    1.8000  
  178.60000m    1.8000  
  178.70000m    1.8000  
  178.80000m    1.8000  
  178.90000m    1.8000  
  179.00000m    1.8000  
  179.10000m    1.8000  
  179.20000m    1.8000  
  179.30000m    1.8000  
  179.40000m    1.8000  
  179.50000m    1.8000  
  179.60000m    1.8000  
  179.70000m    1.8000  
  179.80000m    1.8000  
  179.90000m    1.8000  
  180.00000m    1.8000  
  180.10000m    1.8000  
  180.20000m    1.8000  
  180.30000m    1.8000  
  180.40000m    1.8000  
  180.50000m    1.8000  
  180.60000m    1.8000  
  180.70000m    1.8000  
  180.80000m    1.8000  
  180.90000m    1.8000  
  181.00000m    1.8000  
  181.10000m    1.8000  
  181.20000m    1.8000  
  181.30000m    1.8000  
  181.40000m    1.8000  
  181.50000m    1.8000  
  181.60000m    1.8000  
  181.70000m    1.8000  
  181.80000m    1.8000  
  181.90000m    1.8000  
  182.00000m    1.8000  
  182.10000m    1.8000  
  182.20000m    1.8000  
  182.30000m    1.8000  
  182.40000m    1.8000  
  182.50000m    1.8000  
  182.60000m    1.8000  
  182.70000m    1.8000  
  182.80000m    1.8000  
  182.90000m    1.8000  
  183.00000m    1.8000  
  183.10000m    1.8000  
  183.20000m    1.8000  
  183.30000m    1.8000  
  183.40000m    1.8000  
  183.50000m    1.8000  
  183.60000m    1.8000  
  183.70000m    1.8000  
  183.80000m    1.8000  
  183.90000m    1.8000  
  184.00000m    1.8000  
  184.10000m    1.8000  
  184.20000m    1.8000  
  184.30000m    1.8000  
  184.40000m    1.8000  
  184.50000m    1.8000  
  184.60000m    1.8000  
  184.70000m    1.8000  
  184.80000m    1.8000  
  184.90000m    1.8000  
  185.00000m    1.8000  
  185.10000m    1.8000  
  185.20000m    1.8000  
  185.30000m    1.8000  
  185.40000m    1.8000  
  185.50000m    1.8000  
  185.60000m    1.8000  
  185.70000m    1.8000  
  185.80000m    1.8000  
  185.90000m    1.8000  
  186.00000m    1.8000  
  186.10000m    1.8000  
  186.20000m    1.8000  
  186.30000m    1.8000  
  186.40000m    1.8000  
  186.50000m    1.8000  
  186.60000m    1.8000  
  186.70000m    1.8000  
  186.80000m    1.8000  
  186.90000m    1.8000  
  187.00000m    1.8000  
  187.10000m    1.8000  
  187.20000m    1.8000  
  187.30000m    1.8000  
  187.40000m    1.8000  
  187.50000m    1.8000  
  187.60000m    1.8000  
  187.70000m    1.8000  
  187.80000m    1.8000  
  187.90000m    1.8000  
  188.00000m    1.8000  
  188.10000m    1.8000  
  188.20000m    1.8000  
  188.30000m    1.8000  
  188.40000m    1.7999  
  188.50000m    1.7999  
  188.60000m    1.7999  
  188.70000m    1.7999  
  188.80000m    1.7999  
  188.90000m    1.7999  
  189.00000m    1.7999  
  189.10000m    1.7999  
  189.20000m    1.7999  
  189.30000m    1.7999  
  189.40000m    1.7999  
  189.50000m    1.7999  
  189.60000m    1.7999  
  189.70000m    1.7999  
  189.80000m    1.7999  
  189.90000m    1.7999  
  190.00000m    1.7999  
  190.10000m    1.7999  
  190.20000m    1.7999  
  190.30000m    1.7999  
  190.40000m    1.7999  
  190.50000m    1.7999  
  190.60000m    1.7999  
  190.70000m    1.7999  
  190.80000m    1.7999  
  190.90000m    1.7999  
  191.00000m    1.7999  
  191.10000m    1.7999  
  191.20000m    1.7999  
  191.30000m    1.7999  
  191.40000m    1.7999  
  191.50000m    1.7999  
  191.60000m    1.7999  
  191.70000m    1.7999  
  191.80000m    1.7999  
  191.90000m    1.7999  
  192.00000m    1.7999  
  192.10000m    1.7999  
  192.20000m    1.7999  
  192.30000m    1.7999  
  192.40000m    1.7999  
  192.50000m    1.7999  
  192.60000m    1.7999  
  192.70000m    1.7999  
  192.80000m    1.7999  
  192.90000m    1.7999  
  193.00000m    1.7999  
  193.10000m    1.7999  
  193.20000m    1.7999  
  193.30000m    1.7999  
  193.40000m    1.7999  
  193.50000m    1.7999  
  193.60000m    1.7999  
  193.70000m    1.7999  
  193.80000m    1.7999  
  193.90000m    1.7999  
  194.00000m    1.7999  
  194.10000m    1.7999  
  194.20000m    1.7999  
  194.30000m    1.7999  
  194.40000m    1.7999  
  194.50000m    1.7999  
  194.60000m    1.7999  
  194.70000m    1.7999  
  194.80000m    1.7999  
  194.90000m    1.7999  
  195.00000m    1.7999  
  195.10000m    1.7999  
  195.20000m    1.7999  
  195.30000m    1.7999  
  195.40000m    1.7999  
  195.50000m    1.7999  
  195.60000m    1.7999  
  195.70000m    1.7999  
  195.80000m    1.7999  
  195.90000m    1.7999  
  196.00000m    1.7999  
  196.10000m    1.7999  
  196.20000m    1.7999  
  196.30000m    1.7999  
  196.40000m    1.7999  
  196.50000m    1.7999  
  196.60000m    1.7999  
  196.70000m    1.7999  
  196.80000m    1.7999  
  196.90000m    1.7999  
  197.00000m    1.7999  
  197.10000m    1.7999  
  197.20000m    1.7999  
  197.30000m    1.7999  
  197.40000m    1.7999  
  197.50000m    1.7999  
  197.60000m    1.7999  
  197.70000m    1.7999  
  197.80000m    1.7999  
  197.90000m    1.7999  
  198.00000m    1.7999  
  198.10000m    1.7999  
  198.20000m    1.7999  
  198.30000m    1.7999  
  198.40000m    1.7999  
  198.50000m    1.7999  
  198.60000m    1.7999  
  198.70000m    1.7999  
  198.80000m    1.7999  
  198.90000m    1.7999  
  199.00000m    1.7999  
  199.10000m    1.7999  
  199.20000m    1.7999  
  199.30000m    1.7999  
  199.40000m    1.7999  
  199.50000m    1.7999  
  199.60000m    1.7999  
  199.70000m    1.7999  
  199.80000m    1.7999  
  199.90000m    1.7999  
  200.00000m    1.7999  
  200.10000m    1.7999  
  200.20000m    1.7999  
  200.30000m    1.7999  
  200.40000m    1.7999  
  200.50000m    1.7999  
  200.60000m    1.7999  
  200.70000m    1.7999  
  200.80000m    1.7999  
  200.90000m    1.7999  
  201.00000m    1.7999  
  201.10000m    1.7999  
  201.20000m    1.7999  
  201.30000m    1.7999  
  201.40000m    1.7999  
  201.50000m    1.7999  
  201.60000m    1.7999  
  201.70000m    1.7999  
  201.80000m    1.7999  
  201.90000m    1.7999  
  202.00000m    1.7999  
  202.10000m    1.7999  
  202.20000m    1.7999  
  202.30000m    1.7999  
  202.40000m    1.7999  
  202.50000m    1.7999  
  202.60000m    1.7999  
  202.70000m    1.7999  
  202.80000m    1.7999  
  202.90000m    1.7999  
  203.00000m    1.7999  
  203.10000m    1.7999  
  203.20000m    1.7999  
  203.30000m    1.7999  
  203.40000m    1.7999  
  203.50000m    1.7999  
  203.60000m    1.7999  
  203.70000m    1.7999  
  203.80000m    1.7999  
  203.90000m    1.7999  
  204.00000m    1.7999  
  204.10000m    1.7999  
  204.20000m    1.7999  
  204.30000m    1.7999  
  204.40000m    1.7999  
  204.50000m    1.7999  
  204.60000m    1.7999  
  204.70000m    1.7999  
  204.80000m    1.7999  
  204.90000m    1.7999  
  205.00000m    1.7999  
  205.10000m    1.7999  
  205.20000m    1.7999  
  205.30000m    1.7999  
  205.40000m    1.7999  
  205.50000m    1.7999  
  205.60000m    1.7999  
  205.70000m    1.7999  
  205.80000m    1.7999  
  205.90000m    1.7999  
  206.00000m    1.7999  
  206.10000m    1.7999  
  206.20000m    1.7999  
  206.30000m    1.7999  
  206.40000m    1.7999  
  206.50000m    1.7999  
  206.60000m    1.7999  
  206.70000m    1.7999  
  206.80000m    1.7999  
  206.90000m    1.7999  
  207.00000m    1.7999  
  207.10000m    1.7999  
  207.20000m    1.7999  
  207.30000m    1.7999  
  207.40000m    1.7999  
  207.50000m    1.7999  
  207.60000m    1.7999  
  207.70000m    1.7999  
  207.80000m    1.7999  
  207.90000m    1.7999  
  208.00000m    1.7999  
  208.10000m    1.7999  
  208.20000m    1.7999  
  208.30000m    1.7999  
  208.40000m    1.7999  
  208.50000m    1.7999  
  208.60000m    1.7999  
  208.70000m    1.7999  
  208.80000m    1.7999  
  208.90000m    1.7999  
  209.00000m    1.7999  
  209.10000m    1.7999  
  209.20000m    1.7999  
  209.30000m    1.7999  
  209.40000m    1.7999  
  209.50000m    1.7999  
  209.60000m    1.7999  
  209.70000m    1.7999  
  209.80000m    1.7999  
  209.90000m    1.7999  
  210.00000m    1.7999  
  210.10000m    1.7999  
  210.20000m    1.7999  
  210.30000m    1.7999  
  210.40000m    1.7999  
  210.50000m    1.7999  
  210.60000m    1.7999  
  210.70000m    1.7999  
  210.80000m    1.7999  
  210.90000m    1.7999  
  211.00000m    1.7999  
  211.10000m    1.7999  
  211.20000m    1.7999  
  211.30000m    1.7999  
  211.40000m    1.7999  
  211.50000m    1.7999  
  211.60000m    1.7999  
  211.70000m    1.7999  
  211.80000m    1.7999  
  211.90000m    1.7999  
  212.00000m    1.7999  
  212.10000m    1.7999  
  212.20000m    1.7999  
  212.30000m    1.7999  
  212.40000m    1.7999  
  212.50000m    1.7999  
  212.60000m    1.7999  
  212.70000m    1.7999  
  212.80000m    1.7999  
  212.90000m    1.7999  
  213.00000m    1.7999  
  213.10000m    1.7999  
  213.20000m    1.7999  
  213.30000m    1.7999  
  213.40000m    1.7999  
  213.50000m    1.7999  
  213.60000m    1.7999  
  213.70000m    1.7999  
  213.80000m    1.7999  
  213.90000m    1.7999  
  214.00000m    1.7999  
  214.10000m    1.7999  
  214.20000m    1.7999  
  214.30000m    1.7999  
  214.40000m    1.7999  
  214.50000m    1.7999  
  214.60000m    1.7999  
  214.70000m    1.7999  
  214.80000m    1.7999  
  214.90000m    1.7999  
  215.00000m    1.7999  
  215.10000m    1.7999  
  215.20000m    1.7999  
  215.30000m    1.7999  
  215.40000m    1.7999  
  215.50000m    1.7999  
  215.60000m    1.7999  
  215.70000m    1.7999  
  215.80000m    1.7999  
  215.90000m    1.7999  
  216.00000m    1.7999  
  216.10000m    1.7999  
  216.20000m    1.7999  
  216.30000m    1.7999  
  216.40000m    1.7999  
  216.50000m    1.7999  
  216.60000m    1.7999  
  216.70000m    1.7999  
  216.80000m    1.7999  
  216.90000m    1.7999  
  217.00000m    1.7999  
  217.10000m    1.7999  
  217.20000m    1.7999  
  217.30000m    1.7999  
  217.40000m    1.7999  
  217.50000m    1.7999  
  217.60000m    1.7999  
  217.70000m    1.7999  
  217.80000m    1.7999  
  217.90000m    1.7999  
  218.00000m    1.7999  
  218.10000m    1.7999  
  218.20000m    1.7999  
  218.30000m    1.7999  
  218.40000m    1.7999  
  218.50000m    1.7999  
  218.60000m    1.7999  
  218.70000m    1.7999  
  218.80000m    1.7999  
  218.90000m    1.7999  
  219.00000m    1.7999  
  219.10000m    1.7999  
  219.20000m    1.7999  
  219.30000m    1.7999  
  219.40000m    1.7999  
  219.50000m    1.7999  
  219.60000m    1.7999  
  219.70000m    1.7999  
  219.80000m    1.7999  
  219.90000m    1.7999  
  220.00000m    1.7999  
  220.10000m    1.7999  
  220.20000m    1.7999  
  220.30000m    1.7999  
  220.40000m    1.7999  
  220.50000m    1.7999  
  220.60000m    1.7999  
  220.70000m    1.7999  
  220.80000m    1.7999  
  220.90000m    1.7999  
  221.00000m    1.7999  
  221.10000m    1.7999  
  221.20000m    1.7999  
  221.30000m    1.7999  
  221.40000m    1.7999  
  221.50000m    1.7999  
  221.60000m    1.7999  
  221.70000m    1.7999  
  221.80000m    1.7999  
  221.90000m    1.7999  
  222.00000m    1.7999  
  222.10000m    1.7999  
  222.20000m    1.7999  
  222.30000m    1.7999  
  222.40000m    1.7999  
  222.50000m    1.7999  
  222.60000m    1.7999  
  222.70000m    1.7999  
  222.80000m    1.7999  
  222.90000m    1.7999  
  223.00000m    1.7999  
  223.10000m    1.7999  
  223.20000m    1.7999  
  223.30000m    1.7999  
  223.40000m    1.7998  
  223.50000m    1.7998  
  223.60000m    1.7998  
  223.70000m    1.7998  
  223.80000m    1.7998  
  223.90000m    1.7998  
  224.00000m    1.7998  
  224.10000m    1.7998  
  224.20000m    1.7998  
  224.30000m    1.7998  
  224.40000m    1.7998  
  224.50000m    1.7998  
  224.60000m    1.7998  
  224.70000m    1.7998  
  224.80000m    1.7998  
  224.90000m    1.7998  
  225.00000m    1.7998  
  225.10000m    1.7998  
  225.20000m    1.7998  
  225.30000m    1.7998  
  225.40000m    1.7998  
  225.50000m    1.7998  
  225.60000m    1.7998  
  225.70000m    1.7998  
  225.80000m    1.7998  
  225.90000m    1.7998  
  226.00000m    1.7998  
  226.10000m    1.7998  
  226.20000m    1.7998  
  226.30000m    1.7998  
  226.40000m    1.7998  
  226.50000m    1.7998  
  226.60000m    1.7998  
  226.70000m    1.7998  
  226.80000m    1.7998  
  226.90000m    1.7998  
  227.00000m    1.7998  
  227.10000m    1.7998  
  227.20000m    1.7998  
  227.30000m    1.7998  
  227.40000m    1.7998  
  227.50000m    1.7998  
  227.60000m    1.7998  
  227.70000m    1.7998  
  227.80000m    1.7998  
  227.90000m    1.7998  
  228.00000m    1.7998  
  228.10000m    1.7998  
  228.20000m    1.7998  
  228.30000m    1.7998  
  228.40000m    1.7998  
  228.50000m    1.7998  
  228.60000m    1.7998  
  228.70000m    1.7998  
  228.80000m    1.7998  
  228.90000m    1.7998  
  229.00000m    1.7998  
  229.10000m    1.7998  
  229.20000m    1.7998  
  229.30000m    1.7998  
  229.40000m    1.7998  
  229.50000m    1.7998  
  229.60000m    1.7998  
  229.70000m    1.7998  
  229.80000m    1.7998  
  229.90000m    1.7998  
  230.00000m    1.7998  
  230.10000m    1.7998  
  230.20000m    1.7998  
  230.30000m    1.7998  
  230.40000m    1.7998  
  230.50000m    1.7998  
  230.60000m    1.7998  
  230.70000m    1.7998  
  230.80000m    1.7998  
  230.90000m    1.7998  
  231.00000m    1.7998  
  231.10000m    1.7998  
  231.20000m    1.7998  
  231.30000m    1.7998  
  231.40000m    1.7998  
  231.50000m    1.7998  
  231.60000m    1.7998  
  231.70000m    1.7998  
  231.80000m    1.7998  
  231.90000m    1.7998  
  232.00000m    1.7998  
  232.10000m    1.7998  
  232.20000m    1.7998  
  232.30000m    1.7998  
  232.40000m    1.7998  
  232.50000m    1.7998  
  232.60000m    1.7998  
  232.70000m    1.7998  
  232.80000m    1.7998  
  232.90000m    1.7998  
  233.00000m    1.7998  
  233.10000m    1.7998  
  233.20000m    1.7998  
  233.30000m    1.7998  
  233.40000m    1.7998  
  233.50000m    1.7998  
  233.60000m    1.7998  
  233.70000m    1.7998  
  233.80000m    1.7998  
  233.90000m    1.7998  
  234.00000m    1.7998  
  234.10000m    1.7998  
  234.20000m    1.7998  
  234.30000m    1.7998  
  234.40000m    1.7998  
  234.50000m    1.7998  
  234.60000m    1.7998  
  234.70000m    1.7998  
  234.80000m    1.7998  
  234.90000m    1.7998  
  235.00000m    1.7998  
  235.10000m    1.7998  
  235.20000m    1.7998  
  235.30000m    1.7998  
  235.40000m    1.7998  
  235.50000m    1.7998  
  235.60000m    1.7998  
  235.70000m    1.7998  
  235.80000m    1.7998  
  235.90000m    1.7998  
  236.00000m    1.7998  
  236.10000m    1.7998  
  236.20000m    1.7998  
  236.30000m    1.7998  
  236.40000m    1.7998  
  236.50000m    1.7998  
  236.60000m    1.7998  
  236.70000m    1.7998  
  236.80000m    1.7998  
  236.90000m    1.7998  
  237.00000m    1.7998  
  237.10000m    1.7998  
  237.20000m    1.7998  
  237.30000m    1.7998  
  237.40000m    1.7998  
  237.50000m    1.7998  
  237.60000m    1.7998  
  237.70000m    1.7998  
  237.80000m    1.7998  
  237.90000m    1.7998  
  238.00000m    1.7998  
  238.10000m    1.7998  
  238.20000m    1.7998  
  238.30000m    1.7998  
  238.40000m    1.7998  
  238.50000m    1.7998  
  238.60000m    1.7998  
  238.70000m    1.7998  
  238.80000m    1.7998  
  238.90000m    1.7998  
  239.00000m    1.7998  
  239.10000m    1.7998  
  239.20000m    1.7998  
  239.30000m    1.7998  
  239.40000m    1.7998  
  239.50000m    1.7998  
  239.60000m    1.7998  
  239.70000m    1.7998  
  239.80000m    1.7998  
  239.90000m    1.7998  
  240.00000m    1.7998  
  240.10000m    1.7998  
  240.20000m    1.7997  
  240.30000m    1.7997  
  240.40000m    1.7997  
  240.50000m    1.7997  
  240.60000m    1.7997  
  240.70000m    1.7997  
  240.80000m    1.7997  
  240.90000m    1.7997  
  241.00000m    1.7997  
  241.10000m    1.7997  
  241.20000m    1.7997  
  241.30000m    1.7997  
  241.40000m    1.7997  
  241.50000m    1.7997  
  241.60000m    1.7997  
  241.70000m    1.7997  
  241.80000m    1.7997  
  241.90000m    1.7997  
  242.00000m    1.7997  
  242.10000m    1.7997  
  242.20000m    1.7997  
  242.30000m    1.7997  
  242.40000m    1.7997  
  242.50000m    1.7997  
  242.60000m    1.7997  
  242.70000m    1.7997  
  242.80000m    1.7997  
  242.90000m    1.7997  
  243.00000m    1.7997  
  243.10000m    1.7997  
  243.20000m    1.7997  
  243.30000m    1.7997  
  243.40000m    1.7997  
  243.50000m    1.7997  
  243.60000m    1.7997  
  243.70000m    1.7997  
  243.80000m    1.7997  
  243.90000m    1.7997  
  244.00000m    1.7997  
  244.10000m    1.7997  
  244.20000m    1.7997  
  244.30000m    1.7997  
  244.40000m    1.7997  
  244.50000m    1.7997  
  244.60000m    1.7997  
  244.70000m    1.7997  
  244.80000m    1.7997  
  244.90000m    1.7997  
  245.00000m    1.7997  
  245.10000m    1.7997  
  245.20000m    1.7997  
  245.30000m    1.7997  
  245.40000m    1.7997  
  245.50000m    1.7997  
  245.60000m    1.7997  
  245.70000m    1.7997  
  245.80000m    1.7997  
  245.90000m    1.7997  
  246.00000m    1.7997  
  246.10000m    1.7997  
  246.20000m    1.7997  
  246.30000m    1.7997  
  246.40000m    1.7997  
  246.50000m    1.7997  
  246.60000m    1.7997  
  246.70000m    1.7997  
  246.80000m    1.7997  
  246.90000m    1.7997  
  247.00000m    1.7997  
  247.10000m    1.7997  
  247.20000m    1.7997  
  247.30000m    1.7997  
  247.40000m    1.7997  
  247.50000m    1.7997  
  247.60000m    1.7997  
  247.70000m    1.7997  
  247.80000m    1.7997  
  247.90000m    1.7997  
  248.00000m    1.7997  
  248.10000m    1.7997  
  248.20000m    1.7997  
  248.30000m    1.7997  
  248.40000m    1.7997  
  248.50000m    1.7997  
  248.60000m    1.7997  
  248.70000m    1.7997  
  248.80000m    1.7997  
  248.90000m    1.7997  
  249.00000m    1.7997  
  249.10000m    1.7997  
  249.20000m    1.7997  
  249.30000m    1.7997  
  249.40000m    1.7997  
  249.50000m    1.7997  
  249.60000m    1.7997  
  249.70000m    1.7997  
  249.80000m    1.7997  
  249.90000m    1.7997  
  250.00000m    1.7997  
  250.10000m    1.7997  
  250.20000m    1.7997  
  250.30000m    1.7997  
  250.40000m    1.7997  
  250.50000m    1.7997  
  250.60000m    1.7997  
  250.70000m    1.7997  
  250.80000m    1.7997  
  250.90000m    1.7997  
  251.00000m    1.7997  
  251.10000m    1.7997  
  251.20000m    1.7997  
  251.30000m    1.7997  
  251.40000m    1.7997  
  251.50000m    1.7996  
  251.60000m    1.7996  
  251.70000m    1.7996  
  251.80000m    1.7996  
  251.90000m    1.7996  
  252.00000m    1.7996  
  252.10000m    1.7996  
  252.20000m    1.7996  
  252.30000m    1.7996  
  252.40000m    1.7996  
  252.50000m    1.7996  
  252.60000m    1.7996  
  252.70000m    1.7996  
  252.80000m    1.7996  
  252.90000m    1.7996  
  253.00000m    1.7996  
  253.10000m    1.7996  
  253.20000m    1.7996  
  253.30000m    1.7996  
  253.40000m    1.7996  
  253.50000m    1.7996  
  253.60000m    1.7996  
  253.70000m    1.7996  
  253.80000m    1.7996  
  253.90000m    1.7996  
  254.00000m    1.7996  
  254.10000m    1.7996  
  254.20000m    1.7996  
  254.30000m    1.7996  
  254.40000m    1.7996  
  254.50000m    1.7996  
  254.60000m    1.7996  
  254.70000m    1.7996  
  254.80000m    1.7996  
  254.90000m    1.7996  
  255.00000m    1.7996  
  255.10000m    1.7996  
  255.20000m    1.7996  
  255.30000m    1.7996  
  255.40000m    1.7996  
  255.50000m    1.7996  
  255.60000m    1.7996  
  255.70000m    1.7996  
  255.80000m    1.7996  
  255.90000m    1.7996  
  256.00000m    1.7996  
  256.10000m    1.7996  
  256.20000m    1.7996  
  256.30000m    1.7996  
  256.40000m    1.7996  
  256.50000m    1.7996  
  256.60000m    1.7996  
  256.70000m    1.7996  
  256.80000m    1.7996  
  256.90000m    1.7996  
  257.00000m    1.7996  
  257.10000m    1.7996  
  257.20000m    1.7996  
  257.30000m    1.7996  
  257.40000m    1.7996  
  257.50000m    1.7996  
  257.60000m    1.7996  
  257.70000m    1.7996  
  257.80000m    1.7996  
  257.90000m    1.7996  
  258.00000m    1.7996  
  258.10000m    1.7996  
  258.20000m    1.7996  
  258.30000m    1.7996  
  258.40000m    1.7996  
  258.50000m    1.7996  
  258.60000m    1.7996  
  258.70000m    1.7996  
  258.80000m    1.7996  
  258.90000m    1.7996  
  259.00000m    1.7996  
  259.10000m    1.7996  
  259.20000m    1.7996  
  259.30000m    1.7996  
  259.40000m    1.7996  
  259.50000m    1.7996  
  259.60000m    1.7996  
  259.70000m    1.7996  
  259.80000m    1.7996  
  259.90000m    1.7996  
  260.00000m    1.7995  
  260.10000m    1.7995  
  260.20000m    1.7995  
  260.30000m    1.7995  
  260.40000m    1.7995  
  260.50000m    1.7995  
  260.60000m    1.7995  
  260.70000m    1.7995  
  260.80000m    1.7995  
  260.90000m    1.7995  
  261.00000m    1.7995  
  261.10000m    1.7995  
  261.20000m    1.7995  
  261.30000m    1.7995  
  261.40000m    1.7995  
  261.50000m    1.7995  
  261.60000m    1.7995  
  261.70000m    1.7995  
  261.80000m    1.7995  
  261.90000m    1.7995  
  262.00000m    1.7995  
  262.10000m    1.7995  
  262.20000m    1.7995  
  262.30000m    1.7995  
  262.40000m    1.7995  
  262.50000m    1.7995  
  262.60000m    1.7995  
  262.70000m    1.7995  
  262.80000m    1.7995  
  262.90000m    1.7995  
  263.00000m    1.7995  
  263.10000m    1.7995  
  263.20000m    1.7995  
  263.30000m    1.7995  
  263.40000m    1.7995  
  263.50000m    1.7995  
  263.60000m    1.7995  
  263.70000m    1.7995  
  263.80000m    1.7995  
  263.90000m    1.7995  
  264.00000m    1.7995  
  264.10000m    1.7995  
  264.20000m    1.7995  
  264.30000m    1.7995  
  264.40000m    1.7995  
  264.50000m    1.7995  
  264.60000m    1.7995  
  264.70000m    1.7995  
  264.80000m    1.7995  
  264.90000m    1.7995  
  265.00000m    1.7995  
  265.10000m    1.7995  
  265.20000m    1.7995  
  265.30000m    1.7995  
  265.40000m    1.7995  
  265.50000m    1.7995  
  265.60000m    1.7995  
  265.70000m    1.7995  
  265.80000m    1.7995  
  265.90000m    1.7995  
  266.00000m    1.7995  
  266.10000m    1.7995  
  266.20000m    1.7995  
  266.30000m    1.7995  
  266.40000m    1.7995  
  266.50000m    1.7995  
  266.60000m    1.7995  
  266.70000m    1.7995  
  266.80000m    1.7995  
  266.90000m    1.7995  
  267.00000m    1.7994  
  267.10000m    1.7994  
  267.20000m    1.7994  
  267.30000m    1.7994  
  267.40000m    1.7994  
  267.50000m    1.7994  
  267.60000m    1.7994  
  267.70000m    1.7994  
  267.80000m    1.7994  
  267.90000m    1.7994  
  268.00000m    1.7994  
  268.10000m    1.7994  
  268.20000m    1.7994  
  268.30000m    1.7994  
  268.40000m    1.7994  
  268.50000m    1.7994  
  268.60000m    1.7994  
  268.70000m    1.7994  
  268.80000m    1.7994  
  268.90000m    1.7994  
  269.00000m    1.7994  
  269.10000m    1.7994  
  269.20000m    1.7994  
  269.30000m    1.7994  
  269.40000m    1.7994  
  269.50000m    1.7994  
  269.60000m    1.7994  
  269.70000m    1.7994  
  269.80000m    1.7994  
  269.90000m    1.7994  
  270.00000m    1.7994  
  270.10000m    1.7994  
  270.20000m    1.7994  
  270.30000m    1.7994  
  270.40000m    1.7994  
  270.50000m    1.7994  
  270.60000m    1.7994  
  270.70000m    1.7994  
  270.80000m    1.7994  
  270.90000m    1.7994  
  271.00000m    1.7994  
  271.10000m    1.7994  
  271.20000m    1.7994  
  271.30000m    1.7994  
  271.40000m    1.7994  
  271.50000m    1.7994  
  271.60000m    1.7994  
  271.70000m    1.7994  
  271.80000m    1.7994  
  271.90000m    1.7994  
  272.00000m    1.7994  
  272.10000m    1.7994  
  272.20000m    1.7994  
  272.30000m    1.7994  
  272.40000m    1.7994  
  272.50000m    1.7994  
  272.60000m    1.7994  
  272.70000m    1.7994  
  272.80000m    1.7993  
  272.90000m    1.7993  
  273.00000m    1.7993  
  273.10000m    1.7993  
  273.20000m    1.7993  
  273.30000m    1.7993  
  273.40000m    1.7993  
  273.50000m    1.7993  
  273.60000m    1.7993  
  273.70000m    1.7993  
  273.80000m    1.7993  
  273.90000m    1.7993  
  274.00000m    1.7993  
  274.10000m    1.7993  
  274.20000m    1.7993  
  274.30000m    1.7993  
  274.40000m    1.7993  
  274.50000m    1.7993  
  274.60000m    1.7993  
  274.70000m    1.7993  
  274.80000m    1.7993  
  274.90000m    1.7993  
  275.00000m    1.7993  
  275.10000m    1.7993  
  275.20000m    1.7993  
  275.30000m    1.7993  
  275.40000m    1.7993  
  275.50000m    1.7993  
  275.60000m    1.7993  
  275.70000m    1.7993  
  275.80000m    1.7993  
  275.90000m    1.7993  
  276.00000m    1.7993  
  276.10000m    1.7993  
  276.20000m    1.7993  
  276.30000m    1.7993  
  276.40000m    1.7993  
  276.50000m    1.7993  
  276.60000m    1.7993  
  276.70000m    1.7993  
  276.80000m    1.7993  
  276.90000m    1.7993  
  277.00000m    1.7993  
  277.10000m    1.7993  
  277.20000m    1.7993  
  277.30000m    1.7993  
  277.40000m    1.7993  
  277.50000m    1.7993  
  277.60000m    1.7993  
  277.70000m    1.7993  
  277.80000m    1.7993  
  277.90000m    1.7992  
  278.00000m    1.7992  
  278.10000m    1.7992  
  278.20000m    1.7992  
  278.30000m    1.7992  
  278.40000m    1.7992  
  278.50000m    1.7992  
  278.60000m    1.7992  
  278.70000m    1.7992  
  278.80000m    1.7992  
  278.90000m    1.7992  
  279.00000m    1.7992  
  279.10000m    1.7992  
  279.20000m    1.7992  
  279.30000m    1.7992  
  279.40000m    1.7992  
  279.50000m    1.7992  
  279.60000m    1.7992  
  279.70000m    1.7992  
  279.80000m    1.7992  
  279.90000m    1.7992  
  280.00000m    1.7992  
  280.10000m    1.7992  
  280.20000m    1.7992  
  280.30000m    1.7992  
  280.40000m    1.7992  
  280.50000m    1.7992  
  280.60000m    1.7992  
  280.70000m    1.7992  
  280.80000m    1.7992  
  280.90000m    1.7992  
  281.00000m    1.7992  
  281.10000m    1.7992  
  281.20000m    1.7992  
  281.30000m    1.7992  
  281.40000m    1.7992  
  281.50000m    1.7992  
  281.60000m    1.7992  
  281.70000m    1.7992  
  281.80000m    1.7992  
  281.90000m    1.7992  
  282.00000m    1.7992  
  282.10000m    1.7992  
  282.20000m    1.7992  
  282.30000m    1.7991  
  282.40000m    1.7991  
  282.50000m    1.7991  
  282.60000m    1.7991  
  282.70000m    1.7991  
  282.80000m    1.7991  
  282.90000m    1.7991  
  283.00000m    1.7991  
  283.10000m    1.7991  
  283.20000m    1.7991  
  283.30000m    1.7991  
  283.40000m    1.7991  
  283.50000m    1.7991  
  283.60000m    1.7991  
  283.70000m    1.7991  
  283.80000m    1.7991  
  283.90000m    1.7991  
  284.00000m    1.7991  
  284.10000m    1.7991  
  284.20000m    1.7991  
  284.30000m    1.7991  
  284.40000m    1.7991  
  284.50000m    1.7991  
  284.60000m    1.7991  
  284.70000m    1.7991  
  284.80000m    1.7991  
  284.90000m    1.7991  
  285.00000m    1.7991  
  285.10000m    1.7991  
  285.20000m    1.7991  
  285.30000m    1.7991  
  285.40000m    1.7991  
  285.50000m    1.7991  
  285.60000m    1.7991  
  285.70000m    1.7991  
  285.80000m    1.7991  
  285.90000m    1.7991  
  286.00000m    1.7991  
  286.10000m    1.7991  
  286.20000m    1.7991  
  286.30000m    1.7990  
  286.40000m    1.7990  
  286.50000m    1.7990  
  286.60000m    1.7990  
  286.70000m    1.7990  
  286.80000m    1.7990  
  286.90000m    1.7990  
  287.00000m    1.7990  
  287.10000m    1.7990  
  287.20000m    1.7990  
  287.30000m    1.7990  
  287.40000m    1.7990  
  287.50000m    1.7990  
  287.60000m    1.7990  
  287.70000m    1.7990  
  287.80000m    1.7990  
  287.90000m    1.7990  
  288.00000m    1.7990  
  288.10000m    1.7990  
  288.20000m    1.7990  
  288.30000m    1.7990  
  288.40000m    1.7990  
  288.50000m    1.7990  
  288.60000m    1.7990  
  288.70000m    1.7990  
  288.80000m    1.7990  
  288.90000m    1.7990  
  289.00000m    1.7990  
  289.10000m    1.7990  
  289.20000m    1.7990  
  289.30000m    1.7990  
  289.40000m    1.7990  
  289.50000m    1.7990  
  289.60000m    1.7990  
  289.70000m    1.7990  
  289.80000m    1.7990  
  289.90000m    1.7990  
  290.00000m    1.7989  
  290.10000m    1.7989  
  290.20000m    1.7989  
  290.30000m    1.7989  
  290.40000m    1.7989  
  290.50000m    1.7989  
  290.60000m    1.7989  
  290.70000m    1.7989  
  290.80000m    1.7989  
  290.90000m    1.7989  
  291.00000m    1.7989  
  291.10000m    1.7989  
  291.20000m    1.7989  
  291.30000m    1.7989  
  291.40000m    1.7989  
  291.50000m    1.7989  
  291.60000m    1.7989  
  291.70000m    1.7989  
  291.80000m    1.7989  
  291.90000m    1.7989  
  292.00000m    1.7989  
  292.10000m    1.7989  
  292.20000m    1.7989  
  292.30000m    1.7989  
  292.40000m    1.7989  
  292.50000m    1.7989  
  292.60000m    1.7989  
  292.70000m    1.7989  
  292.80000m    1.7989  
  292.90000m    1.7989  
  293.00000m    1.7989  
  293.10000m    1.7989  
  293.20000m    1.7989  
  293.30000m    1.7988  
  293.40000m    1.7988  
  293.50000m    1.7988  
  293.60000m    1.7988  
  293.70000m    1.7988  
  293.80000m    1.7988  
  293.90000m    1.7988  
  294.00000m    1.7988  
  294.10000m    1.7988  
  294.20000m    1.7988  
  294.30000m    1.7988  
  294.40000m    1.7988  
  294.50000m    1.7988  
  294.60000m    1.7988  
  294.70000m    1.7988  
  294.80000m    1.7988  
  294.90000m    1.7988  
  295.00000m    1.7988  
  295.10000m    1.7988  
  295.20000m    1.7988  
  295.30000m    1.7988  
  295.40000m    1.7988  
  295.50000m    1.7988  
  295.60000m    1.7988  
  295.70000m    1.7988  
  295.80000m    1.7988  
  295.90000m    1.7988  
  296.00000m    1.7988  
  296.10000m    1.7988  
  296.20000m    1.7988  
  296.30000m    1.7988  
  296.40000m    1.7987  
  296.50000m    1.7987  
  296.60000m    1.7987  
  296.70000m    1.7987  
  296.80000m    1.7987  
  296.90000m    1.7987  
  297.00000m    1.7987  
  297.10000m    1.7987  
  297.20000m    1.7987  
  297.30000m    1.7987  
  297.40000m    1.7987  
  297.50000m    1.7987  
  297.60000m    1.7987  
  297.70000m    1.7987  
  297.80000m    1.7987  
  297.90000m    1.7987  
  298.00000m    1.7987  
  298.10000m    1.7987  
  298.20000m    1.7987  
  298.30000m    1.7987  
  298.40000m    1.7987  
  298.50000m    1.7987  
  298.60000m    1.7987  
  298.70000m    1.7987  
  298.80000m    1.7987  
  298.90000m    1.7987  
  299.00000m    1.7987  
  299.10000m    1.7987  
  299.20000m    1.7986  
  299.30000m    1.7986  
  299.40000m    1.7986  
  299.50000m    1.7986  
  299.60000m    1.7986  
  299.70000m    1.7986  
  299.80000m    1.7986  
  299.90000m    1.7986  
  300.00000m    1.7986  
  300.10000m    1.7986  
  300.20000m    1.7986  
  300.30000m    1.7986  
  300.40000m    1.7986  
  300.50000m    1.7986  
  300.60000m    1.7986  
  300.70000m    1.7986  
  300.80000m    1.7986  
  300.90000m    1.7986  
  301.00000m    1.7986  
  301.10000m    1.7986  
  301.20000m    1.7986  
  301.30000m    1.7986  
  301.40000m    1.7986  
  301.50000m    1.7986  
  301.60000m    1.7986  
  301.70000m    1.7986  
  301.80000m    1.7986  
  301.90000m    1.7985  
  302.00000m    1.7985  
  302.10000m    1.7985  
  302.20000m    1.7985  
  302.30000m    1.7985  
  302.40000m    1.7985  
  302.50000m    1.7985  
  302.60000m    1.7985  
  302.70000m    1.7985  
  302.80000m    1.7985  
  302.90000m    1.7985  
  303.00000m    1.7985  
  303.10000m    1.7985  
  303.20000m    1.7985  
  303.30000m    1.7985  
  303.40000m    1.7985  
  303.50000m    1.7985  
  303.60000m    1.7985  
  303.70000m    1.7985  
  303.80000m    1.7985  
  303.90000m    1.7985  
  304.00000m    1.7985  
  304.10000m    1.7985  
  304.20000m    1.7985  
  304.30000m    1.7985  
  304.40000m    1.7984  
  304.50000m    1.7984  
  304.60000m    1.7984  
  304.70000m    1.7984  
  304.80000m    1.7984  
  304.90000m    1.7984  
  305.00000m    1.7984  
  305.10000m    1.7984  
  305.20000m    1.7984  
  305.30000m    1.7984  
  305.40000m    1.7984  
  305.50000m    1.7984  
  305.60000m    1.7984  
  305.70000m    1.7984  
  305.80000m    1.7984  
  305.90000m    1.7984  
  306.00000m    1.7984  
  306.10000m    1.7984  
  306.20000m    1.7984  
  306.30000m    1.7984  
  306.40000m    1.7984  
  306.50000m    1.7984  
  306.60000m    1.7984  
  306.70000m    1.7983  
  306.80000m    1.7983  
  306.90000m    1.7983  
  307.00000m    1.7983  
  307.10000m    1.7983  
  307.20000m    1.7983  
  307.30000m    1.7983  
  307.40000m    1.7983  
  307.50000m    1.7983  
  307.60000m    1.7983  
  307.70000m    1.7983  
  307.80000m    1.7983  
  307.90000m    1.7983  
  308.00000m    1.7983  
  308.10000m    1.7983  
  308.20000m    1.7983  
  308.30000m    1.7983  
  308.40000m    1.7983  
  308.50000m    1.7983  
  308.60000m    1.7983  
  308.70000m    1.7983  
  308.80000m    1.7983  
  308.90000m    1.7982  
  309.00000m    1.7982  
  309.10000m    1.7982  
  309.20000m    1.7982  
  309.30000m    1.7982  
  309.40000m    1.7982  
  309.50000m    1.7982  
  309.60000m    1.7982  
  309.70000m    1.7982  
  309.80000m    1.7982  
  309.90000m    1.7982  
  310.00000m    1.7982  
  310.10000m    1.7982  
  310.20000m    1.7982  
  310.30000m    1.7982  
  310.40000m    1.7982  
  310.50000m    1.7982  
  310.60000m    1.7982  
  310.70000m    1.7982  
  310.80000m    1.7982  
[...]
    1.72770   195.4108m 
    1.72780   195.3977m 
    1.72790   195.3845m 
    1.72800   195.3714m 
    1.72810   195.3583m 
    1.72820   195.3452m 
    1.72830   195.3320m 
    1.72840   195.3189m 
    1.72850   195.3058m 
    1.72860   195.2927m 
    1.72870   195.2796m 
    1.72880   195.2665m 
    1.72890   195.2534m 
    1.72900   195.2403m 
    1.72910   195.2272m 
    1.72920   195.2141m 
    1.72930   195.2010m 
    1.72940   195.1879m 
    1.72950   195.1749m 
    1.72960   195.1618m 
    1.72970   195.1487m 
    1.72980   195.1356m 
    1.72990   195.1226m 
    1.73000   195.1095m 
    1.73010   195.0964m 
    1.73020   195.0834m 
    1.73030   195.0703m 
    1.73040   195.0572m 
    1.73050   195.0442m 
    1.73060   195.0311m 
    1.73070   195.0181m 
    1.73080   195.0050m 
    1.73090   194.9920m 
    1.73100   194.9790m 
    1.73110   194.9659m 
    1.73120   194.9529m 
    1.73130   194.9399m 
    1.73140   194.9268m 
    1.73150   194.9138m 
    1.73160   194.9008m 
    1.73170   194.8878m 
    1.73180   194.8748m 
    1.73190   194.8617m 
    1.73200   194.8487m 
    1.73210   194.8357m 
    1.73220   194.8227m 
    1.73230   194.8097m 
    1.73240   194.7967m 
    1.73250   194.7837m 
    1.73260   194.7707m 
    1.73270   194.7577m 
    1.73280   194.7447m 
    1.73290   194.7318m 
    1.73300   194.7188m 
    1.73310   194.7058m 
    1.73320   194.6928m 
    1.73330   194.6799m 
    1.73340   194.6669m 
    1.73350   194.6539m 
    1.73360   194.6410m 
    1.73370   194.6280m 
    1.73380   194.6150m 
    1.73390   194.6021m 
    1.73400   194.5891m 
    1.73410   194.5762m 
    1.73420   194.5632m 
    1.73430   194.5503m 
    1.73440   194.5373m 
    1.73450   194.5244m 
    1.73460   194.5115m 
    1.73470   194.4985m 
    1.73480   194.4856m 
    1.73490   194.4727m 
    1.73500   194.4597m 
    1.73510   194.4468m 
    1.73520   194.4339m 
    1.73530   194.4210m 
    1.73540   194.4081m 
    1.73550   194.3952m 
    1.73560   194.3823m 
    1.73570   194.3694m 
    1.73580   194.3565m 
    1.73590   194.3436m 
    1.73600   194.3307m 
    1.73610   194.3178m 
    1.73620   194.3049m 
    1.73630   194.2920m 
    1.73640   194.2791m 
    1.73650   194.2662m 
    1.73660   194.2533m 
    1.73670   194.2405m 
    1.73680   194.2276m 
    1.73690   194.2147m 
    1.73700   194.2019m 
    1.73710   194.1890m 
    1.73720   194.1761m 
    1.73730   194.1633m 
    1.73740   194.1504m 
    1.73750   194.1376m 
    1.73760   194.1247m 
    1.73770   194.1119m 
    1.73780   194.0990m 
    1.73790   194.0862m 
    1.73800   194.0733m 
    1.73810   194.0605m 
    1.73820   194.0477m 
    1.73830   194.0348m 
    1.73840   194.0220m 
    1.73850   194.0092m 
    1.73860   193.9964m 
    1.73870   193.9835m 
    1.73880   193.9707m 
    1.73890   193.9579m 
    1.73900   193.9451m 
    1.73910   193.9323m 
    1.73920   193.9195m 
    1.73930   193.9067m 
    1.73940   193.8939m 
    1.73950   193.8811m 
    1.73960   193.8683m 
    1.73970   193.8555m 
    1.73980   193.8427m 
    1.73990   193.8299m 
    1.74000   193.8171m 
    1.74010   193.8044m 
    1.74020   193.7916m 
    1.74030   193.7788m 
    1.74040   193.7660m 
    1.74050   193.7533m 
    1.74060   193.7405m 
    1.74070   193.7277m 
    1.74080   193.7150m 
    1.74090   193.7022m 
    1.74100   193.6895m 
    1.74110   193.6767m 
    1.74120   193.6640m 
    1.74130   193.6512m 
    1.74140   193.6385m 
    1.74150   193.6257m 
    1.74160   193.6130m 
    1.74170   193.6003m 
    1.74180   193.5875m 
    1.74190   193.5748m 
    1.74200   193.5621m 
    1.74210   193.5494m 
    1.74220   193.5366m 
    1.74230   193.5239m 
    1.74240   193.5112m 
    1.74250   193.4985m 
    1.74260   193.4858m 
    1.74270   193.4731m 
    1.74280   193.4604m 
    1.74290   193.4477m 
    1.74300   193.4350m 
    1.74310   193.4223m 
    1.74320   193.4096m 
    1.74330   193.3969m 
    1.74340   193.3842m 
    1.74350   193.3715m 
    1.74360   193.3588m 
    1.74370   193.3462m 
    1.74380   193.3335m 
    1.74390   193.3208m 
    1.74400   193.3081m 
    1.74410   193.2955m 
    1.74420   193.2828m 
    1.74430   193.2702m 
    1.74440   193.2575m 
    1.74450   193.2448m 
    1.74460   193.2322m 
    1.74470   193.2195m 
    1.74480   193.2069m 
    1.74490   193.1942m 
    1.74500   193.1816m 
    1.74510   193.1690m 
    1.74520   193.1563m 
    1.74530   193.1437m 
    1.74540   193.1310m 
    1.74550   193.1184m 
    1.74560   193.1058m 
    1.74570   193.0932m 
    1.74580   193.0805m 
    1.74590   193.0679m 
    1.74600   193.0553m 
    1.74610   193.0427m 
    1.74620   193.0301m 
    1.74630   193.0175m 
    1.74640   193.0049m 
    1.74650   192.9923m 
    1.74660   192.9797m 
    1.74670   192.9671m 
    1.74680   192.9545m 
    1.74690   192.9419m 
    1.74700   192.9293m 
    1.74710   192.9167m 
    1.74720   192.9042m 
    1.74730   192.8916m 
    1.74740   192.8790m 
    1.74750   192.8664m 
    1.74760   192.8539m 
    1.74770   192.8413m 
    1.74780   192.8287m 
    1.74790   192.8162m 
    1.74800   192.8036m 
    1.74810   192.7910m 
    1.74820   192.7785m 
    1.74830   192.7659m 
    1.74840   192.7534m 
    1.74850   192.7408m 
    1.74860   192.7283m 
    1.74870   192.7158m 
    1.74880   192.7032m 
    1.74890   192.6907m 
    1.74900   192.6781m 
    1.74910   192.6656m 
    1.74920   192.6531m 
    1.74930   192.6406m 
    1.74940   192.6280m 
    1.74950   192.6155m 
    1.74960   192.6030m 
    1.74970   192.5905m 
    1.74980   192.5780m 
    1.74990   192.5655m 
    1.75000   192.5530m 
    1.75010   192.5405m 
    1.75020   192.5280m 
    1.75030   192.5155m 
    1.75040   192.5030m 
    1.75050   192.4905m 
    1.75060   192.4780m 
    1.75070   192.4655m 
    1.75080   192.4530m 
    1.75090   192.4406m 
    1.75100   192.4281m 
    1.75110   192.4156m 
    1.75120   192.4031m 
    1.75130   192.3907m 
    1.75140   192.3782m 
    1.75150   192.3657m 
    1.75160   192.3533m 
    1.75170   192.3408m 
    1.75180   192.3284m 
    1.75190   192.3159m 
    1.75200   192.3035m 
    1.75210   192.2910m 
    1.75220   192.2786m 
    1.75230   192.2661m 
    1.75240   192.2537m 
    1.75250   192.2412m 
    1.75260   192.2288m 
    1.75270   192.2164m 
    1.75280   192.2039m 
    1.75290   192.1915m 
    1.75300   192.1791m 
    1.75310   192.1667m 
    1.75320   192.1543m 
    1.75330   192.1418m 
    1.75340   192.1294m 
    1.75350   192.1170m 
    1.75360   192.1046m 
    1.75370   192.0922m 
    1.75380   192.0798m 
    1.75390   192.0674m 
    1.75400   192.0550m 
    1.75410   192.0426m 
    1.75420   192.0302m 
    1.75430   192.0178m 
    1.75440   192.0055m 
    1.75450   191.9931m 
    1.75460   191.9807m 
    1.75470   191.9683m 
    1.75480   191.9559m 
    1.75490   191.9436m 
    1.75500   191.9312m 
    1.75510   191.9188m 
    1.75520   191.9065m 
    1.75530   191.8941m 
    1.75540   191.8818m 
    1.75550   191.8694m 
    1.75560   191.8570m 
    1.75570   191.8447m 
    1.75580   191.8323m 
    1.75590   191.8200m 
    1.75600   191.8077m 
    1.75610   191.7953m 
    1.75620   191.7830m 
    1.75630   191.7706m 
    1.75640   191.7583m 
    1.75650   191.7460m 
    1.75660   191.7337m 
    1.75670   191.7213m 
    1.75680   191.7090m 
    1.75690   191.6967m 
    1.75700   191.6844m 
    1.75710   191.6721m 
    1.75720   191.6598m 
    1.75730   191.6475m 
    1.75740   191.6352m 
    1.75750   191.6228m 
    1.75760   191.6106m 
    1.75770   191.5983m 
    1.75780   191.5860m 
    1.75790   191.5737m 
    1.75800   191.5614m 
    1.75810   191.5491m 
    1.75820   191.5368m 
    1.75830   191.5245m 
    1.75840   191.5123m 
    1.75850   191.5000m 
    1.75860   191.4877m 
    1.75870   191.4754m 
    1.75880   191.4632m 
    1.75890   191.4509m 
    1.75900   191.4386m 
    1.75910   191.4264m 
    1.75920   191.4141m 
    1.75930   191.4019m 
    1.75940   191.3896m 
    1.75950   191.3774m 
    1.75960   191.3651m 
    1.75970   191.3529m 
    1.75980   191.3406m 
    1.75990   191.3284m 
    1.76000   191.3162m 
    1.76010   191.3039m 
    1.76020   191.2917m 
    1.76030   191.2795m 
    1.76040   191.2673m 
    1.76050   191.2550m 
    1.76060   191.2428m 
    1.76070   191.2306m 
    1.76080   191.2184m 
    1.76090   191.2062m 
    1.76100   191.1940m 
    1.76110   191.1818m 
    1.76120   191.1696m 
    1.76130   191.1574m 
    1.76140   191.1452m 
    1.76150   191.1330m 
    1.76160   191.1208m 
    1.76170   191.1086m 
    1.76180   191.0964m 
    1.76190   191.0842m 
    1.76200   191.0720m 
    1.76210   191.0598m 
    1.76220   191.0477m 
    1.76230   191.0355m 
    1.76240   191.0233m 
    1.76250   191.0112m 
    1.76260   190.9990m 
    1.76270   190.9868m 
    1.76280   190.9747m 
    1.76290   190.9625m 
    1.76300   190.9504m 
    1.76310   190.9382m 
    1.76320   190.9260m 
    1.76330   190.9139m 
    1.76340   190.9018m 
    1.76350   190.8896m 
    1.76360   190.8775m 
    1.76370   190.8653m 
    1.76380   190.8532m 
    1.76390   190.8411m 
    1.76400   190.8289m 
    1.76410   190.8168m 
    1.76420   190.8047m 
    1.76430   190.7926m 
    1.76440   190.7804m 
    1.76450   190.7683m 
    1.76460   190.7562m 
    1.76470   190.7441m 
    1.76480   190.7320m 
    1.76490   190.7199m 
    1.76500   190.7078m 
    1.76510   190.6957m 
    1.76520   190.6836m 
    1.76530   190.6715m 
    1.76540   190.6594m 
    1.76550   190.6473m 
    1.76560   190.6352m 
    1.76570   190.6231m 
    1.76580   190.6111m 
    1.76590   190.5990m 
    1.76600   190.5869m 
    1.76610   190.5748m 
    1.76620   190.5628m 
    1.76630   190.5507m 
    1.76640   190.5386m 
    1.76650   190.5266m 
    1.76660   190.5145m 
    1.76670   190.5024m 
    1.76680   190.4904m 
    1.76690   190.4783m 
    1.76700   190.4663m 
    1.76710   190.4542m 
    1.76720   190.4422m 
    1.76730   190.4301m 
    1.76740   190.4181m 
    1.76750   190.4061m 
    1.76760   190.3940m 
    1.76770   190.3820m 
    1.76780   190.3700m 
    1.76790   190.3579m 
    1.76800   190.3459m 
    1.76810   190.3339m 
    1.76820   190.3219m 
    1.76830   190.3099m 
    1.76840   190.2978m 
    1.76850   190.2858m 
    1.76860   190.2738m 
    1.76870   190.2618m 
    1.76880   190.2498m 
    1.76890   190.2378m 
    1.76900   190.2258m 
    1.76910   190.2138m 
    1.76920   190.2018m 
    1.76930   190.1898m 
    1.76940   190.1778m 
    1.76950   190.1659m 
    1.76960   190.1539m 
    1.76970   190.1419m 
    1.76980   190.1299m 
    1.76990   190.1179m 
    1.77000   190.1060m 
    1.77010   190.0940m 
    1.77020   190.0820m 
    1.77030   190.0701m 
    1.77040   190.0581m 
    1.77050   190.0461m 
    1.77060   190.0342m 
    1.77070   190.0222m 
    1.77080   190.0103m 
    1.77090   189.9983m 
    1.77100   189.9864m 
    1.77110   189.9744m 
    1.77120   189.9625m 
    1.77130   189.9506m 
    1.77140   189.9386m 
    1.77150   189.9267m 
    1.77160   189.9148m 
    1.77170   189.9028m 
    1.77180   189.8909m 
    1.77190   189.8790m 
    1.77200   189.8671m 
    1.77210   189.8551m 
    1.77220   189.8432m 
    1.77230   189.8313m 
    1.77240   189.8194m 
    1.77250   189.8075m 
    1.77260   189.7956m 
    1.77270   189.7837m 
    1.77280   189.7718m 
    1.77290   189.7599m 
    1.77300   189.7480m 
    1.77310   189.7361m 
    1.77320   189.7242m 
    1.77330   189.7123m 
    1.77340   189.7004m 
    1.77350   189.6885m 
    1.77360   189.6767m 
    1.77370   189.6648m 
    1.77380   189.6529m 
    1.77390   189.6410m 
    1.77400   189.6292m 
    1.77410   189.6173m 
    1.77420   189.6054m 
    1.77430   189.5936m 
    1.77440   189.5817m 
    1.77450   189.5699m 
    1.77460   189.5580m 
    1.77470   189.5461m 
    1.77480   189.5343m 
    1.77490   189.5225m 
    1.77500   189.5106m 
    1.77510   189.4988m 
    1.77520   189.4869m 
    1.77530   189.4751m 
    1.77540   189.4633m 
    1.77550   189.4514m 
    1.77560   189.4396m 
    1.77570   189.4278m 
    1.77580   189.4159m 
    1.77590   189.4041m 
    1.77600   189.3923m 
    1.77610   189.3805m 
    1.77620   189.3687m 
    1.77630   189.3569m 
    1.77640   189.3451m 
    1.77650   189.3332m 
    1.77660   189.3214m 
    1.77670   189.3096m 
    1.77680   189.2978m 
    1.77690   189.2860m 
    1.77700   189.2743m 
    1.77710   189.2625m 
    1.77720   189.2507m 
    1.77730   189.2389m 
    1.77740   189.2271m 
    1.77750   189.2153m 
    1.77760   189.2035m 
    1.77770   189.1918m 
    1.77780   189.1800m 
    1.77790   189.1682m 
    1.77800   189.1565m 
    1.77810   189.1447m 
    1.77820   189.1329m 
    1.77830   189.1212m 
    1.77840   189.1094m 
    1.77850   189.0977m 
    1.77860   189.0859m 
    1.77870   189.0742m 
    1.77880   189.0624m 
    1.77890   189.0507m 
    1.77900   189.0389m 
    1.77910   189.0272m 
    1.77920   189.0154m 
    1.77930   189.0037m 
    1.77940   188.9920m 
    1.77950   188.9802m 
    1.77960   188.9685m 
    1.77970   188.9568m 
    1.77980   188.9451m 
    1.77990   188.9333m 
    1.78000   188.9216m 
    1.78010   188.9099m 
    1.78020   188.8982m 
    1.78030   188.8865m 
    1.78040   188.8748m 
    1.78050   188.8631m 
    1.78060   188.8514m 
    1.78070   188.8397m 
    1.78080   188.8280m 
    1.78090   188.8163m 
    1.78100   188.8046m 
    1.78110   188.7929m 
    1.78120   188.7812m 
    1.78130   188.7695m 
    1.78140   188.7578m 
    1.78150   188.7462m 
    1.78160   188.7345m 
    1.78170   188.7228m 
    1.78180   188.7111m 
    1.78190   188.6995m 
    1.78200   188.6878m 
    1.78210   188.6761m 
    1.78220   188.6645m 
    1.78230   188.6528m 
    1.78240   188.6412m 
    1.78250   188.6295m 
    1.78260   188.6178m 
    1.78270   188.6062m 
    1.78280   188.5945m 
    1.78290   188.5829m 
    1.78300   188.5713m 
    1.78310   188.5596m 
    1.78320   188.5480m 
    1.78330   188.5363m 
    1.78340   188.5247m 
    1.78350   188.5131m 
    1.78360   188.5015m 
    1.78370   188.4898m 
    1.78380   188.4782m 
    1.78390   188.4666m 
    1.78400   188.4550m 
    1.78410   188.4434m 
    1.78420   188.4317m 
    1.78430   188.4201m 
    1.78440   188.4085m 
    1.78450   188.3969m 
    1.78460   188.3853m 
    1.78470   188.3737m 
    1.78480   188.3621m 
    1.78490   188.3505m 
    1.78500   188.3389m 
    1.78510   188.3273m 
    1.78520   188.3157m 
    1.78530   188.3042m 
    1.78540   188.2926m 
    1.78550   188.2810m 
    1.78560   188.2694m 
    1.78570   188.2578m 
    1.78580   188.2463m 
    1.78590   188.2347m 
    1.78600   188.2231m 
    1.78610   188.2116m 
    1.78620   188.2000m 
    1.78630   188.1884m 
    1.78640   188.1769m 
    1.78650   188.1653m 
    1.78660   188.1538m 
    1.78670   188.1422m 
    1.78680   188.1307m 
    1.78690   188.1191m 
    1.78700   188.1076m 
    1.78710   188.0960m 
    1.78720   188.0845m 
    1.78730   188.0730m 
    1.78740   188.0614m 
    1.78750   188.0499m 
    1.78760   188.0384m 
    1.78770   188.0269m 
    1.78780   188.0153m 
    1.78790   188.0038m 
    1.78800   187.9923m 
    1.78810   187.9808m 
    1.78820   187.9693m 
    1.78830   187.9577m 
    1.78840   187.9462m 
    1.78850   187.9347m 
    1.78860   187.9232m 
    1.78870   187.9117m 
    1.78880   187.9002m 
    1.78890   187.8887m 
    1.78900   187.8772m 
    1.78910   187.8657m 
    1.78920   187.8543m 
    1.78930   187.8428m 
    1.78940   187.8313m 
    1.78950   187.8198m 
    1.78960   187.8083m 
    1.78970   187.7968m 
    1.78980   187.7854m 
    1.78990   187.7739m 
    1.79000   187.7624m 
    1.79010   187.7510m 
    1.79020   187.7395m 
    1.79030   187.7280m 
    1.79040   187.7166m 
    1.79050   187.7051m 
    1.79060   187.6937m 
    1.79070   187.6822m 
    1.79080   187.6708m 
    1.79090   187.6593m 
    1.79100   187.6479m 
    1.79110   187.6364m 
    1.79120   187.6250m 
    1.79130   187.6135m 
    1.79140   187.6021m 
    1.79150   187.5907m 
    1.79160   187.5792m 
    1.79170   187.5678m 
    1.79180   187.5564m 
    1.79190   187.5450m 
    1.79200   187.5335m 
    1.79210   187.5221m 
    1.79220   187.5107m 
    1.79230   187.4993m 
    1.79240   187.4879m 
    1.79250   187.4765m 
    1.79260   187.4651m 
    1.79270   187.4537m 
    1.79280   187.4423m 
    1.79290   187.4309m 
    1.79300   187.4195m 
    1.79310   187.4081m 
    1.79320   187.3967m 
    1.79330   187.3853m 
    1.79340   187.3739m 
    1.79350   187.3625m 
    1.79360   187.3511m 
    1.79370   187.3398m 
    1.79380   187.3284m 
    1.79390   187.3170m 
    1.79400   187.3056m 
    1.79410   187.2943m 
    1.79420   187.2829m 
    1.79430   187.2715m 
    1.79440   187.2602m 
    1.79450   187.2488m 
    1.79460   187.2375m 
    1.79470   187.2261m 
    1.79480   187.2147m 
    1.79490   187.2034m 
    1.79500   187.1920m 
    1.79510   187.1807m 
    1.79520   187.1694m 
    1.79530   187.1580m 
    1.79540   187.1467m 
    1.79550   187.1353m 
    1.79560   187.1240m 
    1.79570   187.1127m 
    1.79580   187.1013m 
    1.79590   187.0900m 
    1.79600   187.0787m 
    1.79610   187.0674m 
    1.79620   187.0561m 
    1.79630   187.0447m 
    1.79640   187.0334m 
    1.79650   187.0221m 
    1.79660   187.0108m 
    1.79670   186.9995m 
    1.79680   186.9882m 
    1.79690   186.9769m 
    1.79700   186.9656m 
    1.79710   186.9543m 
    1.79720   186.9430m 
    1.79730   186.9317m 
    1.79740   186.9204m 
    1.79750   186.9091m 
    1.79760   186.8978m 
    1.79770   186.8866m 
    1.79780   186.8753m 
    1.79790   186.8640m 
    1.79800   186.8527m 
    1.79810   186.8414m 
    1.79820   186.8302m 
    1.79830   186.8189m 
    1.79840   186.8076m 
    1.79850   186.7964m 
    1.79860   186.7851m 
    1.79870   186.7739m 
    1.79880   186.7626m 
    1.79890   186.7513m 
    1.79900   186.7401m 
    1.79910   186.7288m 
    1.79920   186.7176m 
    1.79930   186.7063m 
    1.79940   186.6951m 
    1.79950   186.6839m 
    1.79960   186.6726m 
    1.79970   186.6614m 
    1.79980   186.6502m 
    1.79990   186.6389m 
    1.80000   186.6277m 
y

          ***** job concluded
 ******  
 **testbench**

 ****** job statistics summary tnom=  25.000 temp=  25.000 ******
  
 ******  Machine Information  ******
 CPU:
 model name	: Intel(R) Core(TM) i7-3770 CPU @ 3.40GHz
 cpu MHz	: 3392.084
  
 OS:
 Linux version 2.6.32-642.el6.x86_64 (mockbuild@worker1.bsys.centos.org) (gcc version 4.4.7 20120313 (Red Hat 4.4.7-17) (GCC) ) #1 SMP Tue May 10 17:27:01 UTC 2016


  ******  HSPICE Threads Information  ******

  Command Line Threads Count :     1
  Available CPU Count        :     8
  Actual Threads Count       :     1


  ******  Circuit Statistics  ******
  # nodes       =      10 # elements   =       5
  # resistors   =       0 # capacitors =       0 # inductors   =       0
  # mutual_inds =       0 # vccs       =       0 # vcvs        =       0
  # cccs        =       0 # ccvs       =       0 # volt_srcs   =       2
  # curr_srcs   =       0 # diodes     =       0 # bjts        =       0
  # jfets       =       0 # mosfets    =       3 # U elements  =       0
  # T elements  =       0 # W elements =       0 # B elements  =       0
  # S elements  =       0 # P elements =       0 # va device   =       0
  # vector_srcs =       0 # N elements =       0


  ******  Runtime Statistics (seconds)  ******

  analysis           time    # points   tot. iter  conv.iter
  op point           0.00           1           0
  dc sweep           1.05       18001       36004
  readin             0.02
  errchk             0.00
  setup              0.00
  output             0.00


           peak memory used        290.34 megabytes
           total cpu time            1.13 seconds
           total elapsed time        0.98 seconds
           job started at     20:45:09 06/17/2022
           job ended   at     20:45:10 06/17/2022


 lic: Release hspice token(s) 
 lic: total license checkout elapse time:        0.31(s)
