 ****** HSPICE -- O-2018.09 linux64 (Aug 26 2018) ******                        
  Copyright (c) 1986 - 2022 by Synopsys, Inc. All Rights Reserved.              
  This software and the associated documentation are proprietary
  to Synopsys, Inc. This software may only be used in accordance
  with the terms and conditions of a written license agreement with
  Synopsys, Inc. All other use, reproduction, or distribution of
  this software is strictly prohibited.
  Input File: sram_6t.sp                                                        
  Command line options: /usr/cad/synopsys/hspice/cur/hspice/linux64/hspice -i sram_6t.sp -o sram_6t.lis
 lic:  
 lic: FLEXlm: SDK_11.6.9.6 
 lic: USER:   vlsisj2022063        HOSTNAME: tsri06 
 lic: HOSTID: b4b52fc6a3e9         PID:      15474 
 lic: Using FLEXlm license file: 
 lic: 26585@lstn 
 lic: Checkout 1 hspice 
 lic: License/Maintenance for hspice will expire on 14-may-2025/2021.09 
 lic: 275(in_use)/300(total) FLOATING license(s) on SERVER 26585@lstn 
 lic:   
  **warning** (sram_6t.cir:18) Parameter name is not defined in .param. Please enter parameter variable with their respective value/expression.
  **warning** (sram_6t.cir:29) Global net name, "gnd", in subckt pin list. The pin will be connected to the local net. Recommend to not use global net names in subckt pin lists.
1****** HSPICE -- O-2018.09 linux64 (Aug 26 2018) ******                        
 ******  
 **testbench**

 ****** circuit name directory
 circuit number to circuit name directory
   number circuitname                     definition         multiplier
        0 main circuit
        1 xsram_6t.                       sram_6t            1.00 
  **info** (sram_6t.sp:26) DC voltage reset to initial transient source value in source 0:vclk. new dc=0.1800D+01
 

  
      

Element variations(Local):   element              parameter
 **info** set option symb=1 internally to help for convergence.
 *****************************************************************
 ******  option summary
 ******
 runlvl  = 3         bypass  = 2.0000    
  Opening plot unit= 15
 file=sram_6t.pa0

 **info** dc convergence successful at Newton-Raphson method 
 ******  
 **testbench**

 ****** operating point information tnom=  25.000 temp=  25.000 ******
 ****** operating point status is voltage   simulation time is     0.     
    node    =voltage      node    =voltage      node    =voltage

 +0:bit     =   1.8000  0:bit_b   =   1.8000  0:clk     =   1.8000 
 +0:data    =   0.      0:q       =   1.8000  0:q_b     =  16.7087n
 +0:re      =   0.      0:vdd     =   1.8000  0:we      =   1.8000 
 +0:word    =  19.6574n 1:clk_b   =  19.6573n 1:data_b  =   1.8000 
 +1:net1    =   1.8000  1:net17   =  22.5637n 1:net_010 =   1.8000 
 +1:net_015 =   1.5721  1:net_024 =   5.0995n 1:net_028 =   1.7485 
 +1:net_029 =   1.7485  1:net_030 =  32.0360n 1:net_032 = 412.8560m
 +1:net_033 = 434.7967m 1:re_b    =   1.8000  1:we_b    =  19.6573n


          ***** job concluded
 ******  
 **testbench**

 ****** job statistics summary tnom=  25.000 temp=  25.000 ******
  
 ******  Machine Information  ******
 CPU:
 model name	: Intel(R) Core(TM) i7-3770 CPU @ 3.40GHz
 cpu MHz	: 3392.084
  
 OS:
 Linux version 2.6.32-642.el6.x86_64 (mockbuild@worker1.bsys.centos.org) (gcc version 4.4.7 20120313 (Red Hat 4.4.7-17) (GCC) ) #1 SMP Tue May 10 17:27:01 UTC 2016


  ******  HSPICE Threads Information  ******

  Command Line Threads Count :     1
  Available CPU Count        :     8
  Actual Threads Count       :     1


  ******  Circuit Statistics  ******
  # nodes       =     105 # elements   =      45
  # resistors   =       0 # capacitors =       0 # inductors   =       0
  # mutual_inds =       0 # vccs       =       0 # vcvs        =       0
  # cccs        =       0 # ccvs       =       0 # volt_srcs   =       5
  # curr_srcs   =       0 # diodes     =       0 # bjts        =       0
  # jfets       =       0 # mosfets    =      40 # U elements  =       0
  # T elements  =       0 # W elements =       0 # B elements  =       0
  # S elements  =       0 # P elements =       0 # va device   =       0
  # vector_srcs =       0 # N elements =       0


  ******  Runtime Statistics (seconds)  ******

  analysis           time    # points   tot. iter  conv.iter
  op point           0.00           1          23
  transient          0.08      500001         548         218 rev=         8
  readin             0.02
  errchk             0.01
  setup              0.01
  output             0.00


           peak memory used        290.84 megabytes
           total cpu time            0.12 seconds
           total elapsed time        0.37 seconds
           job started at     17:39:46 06/17/2022
           job ended   at     17:39:47 06/17/2022


 lic: Release hspice token(s) 
 lic: total license checkout elapse time:        0.29(s)
