 ****** HSPICE -- O-2018.09 linux64 (Aug 26 2018) ******                        
  Copyright (c) 1986 - 2022 by Synopsys, Inc. All Rights Reserved.              
  This software and the associated documentation are proprietary
  to Synopsys, Inc. This software may only be used in accordance
  with the terms and conditions of a written license agreement with
  Synopsys, Inc. All other use, reproduction, or distribution of
  this software is strictly prohibited.
  Input File: write_noise_margin.sp                                             
  Command line options: /usr/cad/synopsys/hspice/cur/hspice/linux64/hspice -i write_noise_margin.sp -o write_noise_margin_v2.lis
 lic:  
 lic: FLEXlm: SDK_11.6.9.6 
 lic: USER:   vlsisj2022063        HOSTNAME: tsri06 
 lic: HOSTID: b4b52fc6a3e9         PID:      19255 
 lic: Using FLEXlm license file: 
 lic: 26585@lstn 
 lic: Checkout 1 hspice 
 lic: License/Maintenance for hspice will expire on 14-may-2025/2021.09 
 lic: 236(in_use)/300(total) FLOATING license(s) on SERVER 26585@lstn 
 lic:   
  **warning** (write_noise_margin.cir:18) Parameter name is not defined in .param. Please enter parameter variable with their respective value/expression.
  **warning** (write_noise_margin.cir:29) Global net name, "gnd", in subckt pin list. The pin will be connected to the local net. Recommend to not use global net names in subckt pin lists.
1****** HSPICE -- O-2018.09 linux64 (Aug 26 2018) ******                        
 ******  
 **testbench**

 ****** circuit name directory
 circuit number to circuit name directory
   number circuitname                     definition         multiplier
        0 main circuit
        1 xwrite_noise_margin.            write_noise_margin
                                                                 1.00 
 

  
      

Element variations(Local):   element              parameter
 **info** set option symb=1 internally to help for convergence.
 *****************************************************************
 ******  option summary
 ******
 runlvl  = 3         bypass  = 2.0000    
  Opening plot unit= 15
 file=write_noise_margin_v2.pa0

 ******
 **testbench**

 ****** dc transfer curves tnom=  25.000 temp=  25.000 ******
x

 volt         param     
             v1         
    0.         72.4961m 
  100.00000u   72.4871m 
  200.00000u   72.4780m 
  300.00000u   72.4690m 
  400.00000u   72.4600m 
  500.00000u   72.4510m 
  600.00000u   72.4419m 
  700.00000u   72.4329m 
  800.00000u   72.4239m 
  900.00000u   72.4148m 
    1.00000m   72.4058m 
    1.10000m   72.3968m 
    1.20000m   72.3878m 
    1.30000m   72.3787m 
    1.40000m   72.3697m 
    1.50000m   72.3607m 
    1.60000m   72.3517m 
    1.70000m   72.3426m 
    1.80000m   72.3336m 
    1.90000m   72.3246m 
    2.00000m   72.3156m 
    2.10000m   72.3065m 
    2.20000m   72.2975m 
    2.30000m   72.2885m 
    2.40000m   72.2795m 
    2.50000m   72.2705m 
    2.60000m   72.2615m 
    2.70000m   72.2524m 
    2.80000m   72.2434m 
    2.90000m   72.2344m 
    3.00000m   72.2254m 
    3.10000m   72.2164m 
    3.20000m   72.2074m 
    3.30000m   72.1983m 
    3.40000m   72.1893m 
    3.50000m   72.1803m 
    3.60000m   72.1713m 
    3.70000m   72.1623m 
    3.80000m   72.1533m 
    3.90000m   72.1443m 
    4.00000m   72.1353m 
    4.10000m   72.1262m 
    4.20000m   72.1172m 
    4.30000m   72.1082m 
    4.40000m   72.0992m 
    4.50000m   72.0902m 
    4.60000m   72.0812m 
    4.70000m   72.0722m 
    4.80000m   72.0632m 
    4.90000m   72.0542m 
    5.00000m   72.0452m 
    5.10000m   72.0362m 
    5.20000m   72.0272m 
    5.30000m   72.0182m 
    5.40000m   72.0092m 
    5.50000m   72.0002m 
    5.60000m   71.9912m 
    5.70000m   71.9822m 
    5.80000m   71.9732m 
    5.90000m   71.9642m 
    6.00000m   71.9552m 
    6.10000m   71.9462m 
    6.20000m   71.9372m 
    6.30000m   71.9282m 
    6.40000m   71.9192m 
    6.50000m   71.9102m 
    6.60000m   71.9012m 
    6.70000m   71.8922m 
    6.80000m   71.8832m 
    6.90000m   71.8742m 
    7.00000m   71.8652m 
    7.10000m   71.8562m 
    7.20000m   71.8472m 
    7.30000m   71.8382m 
    7.40000m   71.8292m 
    7.50000m   71.8202m 
    7.60000m   71.8112m 
    7.70000m   71.8023m 
    7.80000m   71.7933m 
    7.90000m   71.7843m 
    8.00000m   71.7753m 
    8.10000m   71.7663m 
    8.20000m   71.7573m 
    8.30000m   71.7483m 
    8.40000m   71.7393m 
    8.50000m   71.7304m 
    8.60000m   71.7214m 
    8.70000m   71.7124m 
    8.80000m   71.7034m 
    8.90000m   71.6944m 
    9.00000m   71.6854m 
    9.10000m   71.6765m 
    9.20000m   71.6675m 
    9.30000m   71.6585m 
    9.40000m   71.6495m 
    9.50000m   71.6405m 
    9.60000m   71.6316m 
    9.70000m   71.6226m 
    9.80000m   71.6136m 
    9.90000m   71.6046m 
   10.00000m   71.5956m 
   10.10000m   71.5867m 
   10.20000m   71.5777m 
   10.30000m   71.5687m 
   10.40000m   71.5597m 
   10.50000m   71.5508m 
   10.60000m   71.5418m 
   10.70000m   71.5328m 
   10.80000m   71.5238m 
   10.90000m   71.5149m 
   11.00000m   71.5059m 
   11.10000m   71.4969m 
   11.20000m   71.4880m 
   11.30000m   71.4790m 
   11.40000m   71.4700m 
   11.50000m   71.4611m 
   11.60000m   71.4521m 
   11.70000m   71.4431m 
   11.80000m   71.4342m 
   11.90000m   71.4252m 
   12.00000m   71.4162m 
   12.10000m   71.4073m 
   12.20000m   71.3983m 
   12.30000m   71.3893m 
   12.40000m   71.3804m 
   12.50000m   71.3714m 
   12.60000m   71.3624m 
   12.70000m   71.3535m 
   12.80000m   71.3445m 
   12.90000m   71.3356m 
   13.00000m   71.3266m 
   13.10000m   71.3176m 
   13.20000m   71.3087m 
   13.30000m   71.2997m 
   13.40000m   71.2908m 
   13.50000m   71.2818m 
   13.60000m   71.2728m 
   13.70000m   71.2639m 
   13.80000m   71.2549m 
   13.90000m   71.2460m 
   14.00000m   71.2370m 
   14.10000m   71.2281m 
   14.20000m   71.2191m 
   14.30000m   71.2102m 
   14.40000m   71.2012m 
   14.50000m   71.1923m 
   14.60000m   71.1833m 
   14.70000m   71.1744m 
   14.80000m   71.1654m 
   14.90000m   71.1565m 
   15.00000m   71.1475m 
   15.10000m   71.1386m 
   15.20000m   71.1296m 
   15.30000m   71.1207m 
   15.40000m   71.1117m 
   15.50000m   71.1028m 
   15.60000m   71.0938m 
   15.70000m   71.0849m 
   15.80000m   71.0759m 
   15.90000m   71.0670m 
   16.00000m   71.0580m 
   16.10000m   71.0491m 
   16.20000m   71.0402m 
   16.30000m   71.0312m 
   16.40000m   71.0223m 
   16.50000m   71.0133m 
   16.60000m   71.0044m 
   16.70000m   70.9955m 
   16.80000m   70.9865m 
   16.90000m   70.9776m 
   17.00000m   70.9686m 
   17.10000m   70.9597m 
   17.20000m   70.9508m 
   17.30000m   70.9418m 
   17.40000m   70.9329m 
   17.50000m   70.9240m 
   17.60000m   70.9150m 
   17.70000m   70.9061m 
   17.80000m   70.8972m 
   17.90000m   70.8882m 
   18.00000m   70.8793m 
   18.10000m   70.8704m 
   18.20000m   70.8614m 
   18.30000m   70.8525m 
   18.40000m   70.8436m 
   18.50000m   70.8346m 
   18.60000m   70.8257m 
   18.70000m   70.8168m 
   18.80000m   70.8079m 
   18.90000m   70.7989m 
   19.00000m   70.7900m 
   19.10000m   70.7811m 
   19.20000m   70.7722m 
   19.30000m   70.7632m 
   19.40000m   70.7543m 
   19.50000m   70.7454m 
   19.60000m   70.7365m 
   19.70000m   70.7275m 
   19.80000m   70.7186m 
   19.90000m   70.7097m 
   20.00000m   70.7008m 
   20.10000m   70.6918m 
   20.20000m   70.6829m 
   20.30000m   70.6740m 
   20.40000m   70.6651m 
   20.50000m   70.6562m 
   20.60000m   70.6472m 
   20.70000m   70.6383m 
   20.80000m   70.6294m 
   20.90000m   70.6205m 
   21.00000m   70.6116m 
   21.10000m   70.6027m 
   21.20000m   70.5938m 
   21.30000m   70.5848m 
   21.40000m   70.5759m 
   21.50000m   70.5670m 
   21.60000m   70.5581m 
   21.70000m   70.5492m 
   21.80000m   70.5403m 
   21.90000m   70.5314m 
   22.00000m   70.5225m 
   22.10000m   70.5135m 
   22.20000m   70.5046m 
   22.30000m   70.4957m 
   22.40000m   70.4868m 
   22.50000m   70.4779m 
   22.60000m   70.4690m 
   22.70000m   70.4601m 
   22.80000m   70.4512m 
   22.90000m   70.4423m 
   23.00000m   70.4334m 
   23.10000m   70.4245m 
   23.20000m   70.4156m 
   23.30000m   70.4067m 
   23.40000m   70.3978m 
   23.50000m   70.3889m 
   23.60000m   70.3800m 
   23.70000m   70.3711m 
   23.80000m   70.3622m 
   23.90000m   70.3533m 
   24.00000m   70.3444m 
   24.10000m   70.3355m 
   24.20000m   70.3266m 
   24.30000m   70.3177m 
   24.40000m   70.3088m 
   24.50000m   70.2999m 
   24.60000m   70.2910m 
   24.70000m   70.2821m 
   24.80000m   70.2732m 
   24.90000m   70.2643m 
   25.00000m   70.2554m 
   25.10000m   70.2465m 
   25.20000m   70.2376m 
   25.30000m   70.2287m 
   25.40000m   70.2198m 
   25.50000m   70.2110m 
   25.60000m   70.2021m 
   25.70000m   70.1932m 
   25.80000m   70.1843m 
   25.90000m   70.1754m 
   26.00000m   70.1665m 
   26.10000m   70.1576m 
   26.20000m   70.1487m 
   26.30000m   70.1399m 
   26.40000m   70.1310m 
   26.50000m   70.1221m 
   26.60000m   70.1132m 
   26.70000m   70.1043m 
   26.80000m   70.0954m 
   26.90000m   70.0865m 
   27.00000m   70.0777m 
   27.10000m   70.0688m 
   27.20000m   70.0599m 
   27.30000m   70.0510m 
   27.40000m   70.0421m 
   27.50000m   70.0333m 
   27.60000m   70.0244m 
   27.70000m   70.0155m 
   27.80000m   70.0066m 
   27.90000m   69.9977m 
   28.00000m   69.9889m 
   28.10000m   69.9800m 
   28.20000m   69.9711m 
   28.30000m   69.9622m 
   28.40000m   69.9534m 
   28.50000m   69.9445m 
   28.60000m   69.9356m 
   28.70000m   69.9267m 
   28.80000m   69.9179m 
   28.90000m   69.9090m 
   29.00000m   69.9001m 
   29.10000m   69.8913m 
   29.20000m   69.8824m 
   29.30000m   69.8735m 
   29.40000m   69.8647m 
   29.50000m   69.8558m 
   29.60000m   69.8469m 
   29.70000m   69.8381m 
   29.80000m   69.8292m 
   29.90000m   69.8203m 
   30.00000m   69.8115m 
   30.10000m   69.8026m 
   30.20000m   69.7937m 
   30.30000m   69.7849m 
   30.40000m   69.7760m 
   30.50000m   69.7671m 
   30.60000m   69.7583m 
   30.70000m   69.7494m 
   30.80000m   69.7405m 
   30.90000m   69.7317m 
   31.00000m   69.7228m 
   31.10000m   69.7140m 
   31.20000m   69.7051m 
   31.30000m   69.6963m 
   31.40000m   69.6874m 
   31.50000m   69.6785m 
   31.60000m   69.6697m 
   31.70000m   69.6608m 
   31.80000m   69.6520m 
   31.90000m   69.6431m 
   32.00000m   69.6343m 
   32.10000m   69.6254m 
   32.20000m   69.6166m 
   32.30000m   69.6077m 
   32.40000m   69.5988m 
   32.50000m   69.5900m 
   32.60000m   69.5811m 
   32.70000m   69.5723m 
   32.80000m   69.5634m 
   32.90000m   69.5546m 
   33.00000m   69.5457m 
   33.10000m   69.5369m 
   33.20000m   69.5280m 
   33.30000m   69.5192m 
   33.40000m   69.5104m 
   33.50000m   69.5015m 
   33.60000m   69.4927m 
   33.70000m   69.4838m 
   33.80000m   69.4750m 
   33.90000m   69.4661m 
   34.00000m   69.4573m 
   34.10000m   69.4484m 
   34.20000m   69.4396m 
   34.30000m   69.4308m 
   34.40000m   69.4219m 
   34.50000m   69.4131m 
   34.60000m   69.4042m 
   34.70000m   69.3954m 
   34.80000m   69.3866m 
   34.90000m   69.3777m 
   35.00000m   69.3689m 
   35.10000m   69.3600m 
   35.20000m   69.3512m 
   35.30000m   69.3424m 
   35.40000m   69.3335m 
   35.50000m   69.3247m 
   35.60000m   69.3159m 
   35.70000m   69.3070m 
   35.80000m   69.2982m 
   35.90000m   69.2894m 
   36.00000m   69.2805m 
   36.10000m   69.2717m 
   36.20000m   69.2629m 
   36.30000m   69.2540m 
   36.40000m   69.2452m 
   36.50000m   69.2364m 
   36.60000m   69.2276m 
   36.70000m   69.2187m 
   36.80000m   69.2099m 
   36.90000m   69.2011m 
   37.00000m   69.1922m 
   37.10000m   69.1834m 
   37.20000m   69.1746m 
   37.30000m   69.1658m 
   37.40000m   69.1569m 
   37.50000m   69.1481m 
   37.60000m   69.1393m 
   37.70000m   69.1305m 
   37.80000m   69.1216m 
   37.90000m   69.1128m 
   38.00000m   69.1040m 
   38.10000m   69.0952m 
   38.20000m   69.0864m 
   38.30000m   69.0775m 
   38.40000m   69.0687m 
   38.50000m   69.0599m 
   38.60000m   69.0511m 
   38.70000m   69.0423m 
   38.80000m   69.0335m 
   38.90000m   69.0246m 
   39.00000m   69.0158m 
   39.10000m   69.0070m 
   39.20000m   68.9982m 
   39.30000m   68.9894m 
   39.40000m   68.9806m 
   39.50000m   68.9718m 
   39.60000m   68.9629m 
   39.70000m   68.9541m 
   39.80000m   68.9453m 
   39.90000m   68.9365m 
   40.00000m   68.9277m 
   40.10000m   68.9189m 
   40.20000m   68.9101m 
   40.30000m   68.9013m 
   40.40000m   68.8925m 
   40.50000m   68.8837m 
   40.60000m   68.8748m 
   40.70000m   68.8660m 
   40.80000m   68.8572m 
   40.90000m   68.8484m 
   41.00000m   68.8396m 
   41.10000m   68.8308m 
   41.20000m   68.8220m 
   41.30000m   68.8132m 
   41.40000m   68.8044m 
   41.50000m   68.7956m 
   41.60000m   68.7868m 
   41.70000m   68.7780m 
   41.80000m   68.7692m 
   41.90000m   68.7604m 
   42.00000m   68.7516m 
   42.10000m   68.7428m 
   42.20000m   68.7340m 
   42.30000m   68.7252m 
   42.40000m   68.7164m 
   42.50000m   68.7076m 
   42.60000m   68.6988m 
   42.70000m   68.6900m 
   42.80000m   68.6812m 
   42.90000m   68.6724m 
   43.00000m   68.6636m 
   43.10000m   68.6549m 
   43.20000m   68.6461m 
   43.30000m   68.6373m 
   43.40000m   68.6285m 
   43.50000m   68.6197m 
   43.60000m   68.6109m 
   43.70000m   68.6021m 
   43.80000m   68.5933m 
   43.90000m   68.5845m 
   44.00000m   68.5757m 
   44.10000m   68.5670m 
   44.20000m   68.5582m 
   44.30000m   68.5494m 
   44.40000m   68.5406m 
   44.50000m   68.5318m 
   44.60000m   68.5230m 
   44.70000m   68.5142m 
   44.80000m   68.5055m 
   44.90000m   68.4967m 
   45.00000m   68.4879m 
   45.10000m   68.4791m 
   45.20000m   68.4703m 
   45.30000m   68.4615m 
   45.40000m   68.4528m 
   45.50000m   68.4440m 
   45.60000m   68.4352m 
   45.70000m   68.4264m 
   45.80000m   68.4177m 
   45.90000m   68.4089m 
   46.00000m   68.4001m 
   46.10000m   68.3913m 
   46.20000m   68.3825m 
   46.30000m   68.3738m 
   46.40000m   68.3650m 
   46.50000m   68.3562m 
   46.60000m   68.3474m 
   46.70000m   68.3387m 
   46.80000m   68.3299m 
   46.90000m   68.3211m 
   47.00000m   68.3124m 
   47.10000m   68.3036m 
   47.20000m   68.2948m 
   47.30000m   68.2860m 
   47.40000m   68.2773m 
   47.50000m   68.2685m 
   47.60000m   68.2597m 
   47.70000m   68.2510m 
   47.80000m   68.2422m 
   47.90000m   68.2334m 
   48.00000m   68.2247m 
   48.10000m   68.2159m 
   48.20000m   68.2071m 
   48.30000m   68.1984m 
   48.40000m   68.1896m 
   48.50000m   68.1809m 
   48.60000m   68.1721m 
   48.70000m   68.1633m 
   48.80000m   68.1546m 
   48.90000m   68.1458m 
   49.00000m   68.1370m 
   49.10000m   68.1283m 
   49.20000m   68.1195m 
   49.30000m   68.1108m 
   49.40000m   68.1020m 
   49.50000m   68.0933m 
   49.60000m   68.0845m 
   49.70000m   68.0757m 
   49.80000m   68.0670m 
   49.90000m   68.0582m 
   50.00000m   68.0495m 
   50.10000m   68.0407m 
   50.20000m   68.0320m 
   50.30000m   68.0232m 
   50.40000m   68.0145m 
   50.50000m   68.0057m 
   50.60000m   67.9970m 
   50.70000m   67.9882m 
   50.80000m   67.9795m 
   50.90000m   67.9707m 
   51.00000m   67.9620m 
   51.10000m   67.9532m 
   51.20000m   67.9445m 
   51.30000m   67.9357m 
   51.40000m   67.9270m 
   51.50000m   67.9182m 
   51.60000m   67.9095m 
   51.70000m   67.9007m 
   51.80000m   67.8920m 
   51.90000m   67.8832m 
   52.00000m   67.8745m 
   52.10000m   67.8657m 
   52.20000m   67.8570m 
   52.30000m   67.8483m 
   52.40000m   67.8395m 
   52.50000m   67.8308m 
   52.60000m   67.8220m 
   52.70000m   67.8133m 
   52.80000m   67.8046m 
   52.90000m   67.7958m 
   53.00000m   67.7871m 
   53.10000m   67.7783m 
   53.20000m   67.7696m 
   53.30000m   67.7609m 
   53.40000m   67.7521m 
   53.50000m   67.7434m 
   53.60000m   67.7347m 
   53.70000m   67.7259m 
   53.80000m   67.7172m 
   53.90000m   67.7085m 
   54.00000m   67.6997m 
   54.10000m   67.6910m 
   54.20000m   67.6823m 
   54.30000m   67.6735m 
   54.40000m   67.6648m 
   54.50000m   67.6561m 
   54.60000m   67.6473m 
   54.70000m   67.6386m 
   54.80000m   67.6299m 
   54.90000m   67.6212m 
   55.00000m   67.6124m 
   55.10000m   67.6037m 
   55.20000m   67.5950m 
   55.30000m   67.5863m 
   55.40000m   67.5775m 
   55.50000m   67.5688m 
   55.60000m   67.5601m 
   55.70000m   67.5514m 
   55.80000m   67.5426m 
   55.90000m   67.5339m 
   56.00000m   67.5252m 
   56.10000m   67.5165m 
   56.20000m   67.5077m 
   56.30000m   67.4990m 
   56.40000m   67.4903m 
   56.50000m   67.4816m 
   56.60000m   67.4729m 
   56.70000m   67.4642m 
   56.80000m   67.4554m 
   56.90000m   67.4467m 
   57.00000m   67.4380m 
   57.10000m   67.4293m 
   57.20000m   67.4206m 
   57.30000m   67.4119m 
   57.40000m   67.4031m 
   57.50000m   67.3944m 
   57.60000m   67.3857m 
   57.70000m   67.3770m 
   57.80000m   67.3683m 
   57.90000m   67.3596m 
   58.00000m   67.3509m 
   58.10000m   67.3422m 
   58.20000m   67.3335m 
   58.30000m   67.3247m 
   58.40000m   67.3160m 
   58.50000m   67.3073m 
   58.60000m   67.2986m 
   58.70000m   67.2899m 
   58.80000m   67.2812m 
   58.90000m   67.2725m 
   59.00000m   67.2638m 
   59.10000m   67.2551m 
   59.20000m   67.2464m 
   59.30000m   67.2377m 
   59.40000m   67.2290m 
   59.50000m   67.2203m 
   59.60000m   67.2116m 
   59.70000m   67.2029m 
   59.80000m   67.1942m 
   59.90000m   67.1855m 
   60.00000m   67.1768m 
   60.10000m   67.1681m 
   60.20000m   67.1594m 
   60.30000m   67.1507m 
   60.40000m   67.1420m 
   60.50000m   67.1333m 
   60.60000m   67.1246m 
   60.70000m   67.1159m 
   60.80000m   67.1072m 
   60.90000m   67.0985m 
   61.00000m   67.0898m 
   61.10000m   67.0811m 
   61.20000m   67.0724m 
   61.30000m   67.0637m 
   61.40000m   67.0550m 
   61.50000m   67.0463m 
   61.60000m   67.0376m 
   61.70000m   67.0290m 
   61.80000m   67.0203m 
   61.90000m   67.0116m 
   62.00000m   67.0029m 
   62.10000m   66.9942m 
   62.20000m   66.9855m 
   62.30000m   66.9768m 
   62.40000m   66.9681m 
   62.50000m   66.9595m 
   62.60000m   66.9508m 
   62.70000m   66.9421m 
   62.80000m   66.9334m 
   62.90000m   66.9247m 
   63.00000m   66.9160m 
   63.10000m   66.9074m 
   63.20000m   66.8987m 
   63.30000m   66.8900m 
   63.40000m   66.8813m 
   63.50000m   66.8726m 
   63.60000m   66.8639m 
   63.70000m   66.8553m 
   63.80000m   66.8466m 
   63.90000m   66.8379m 
   64.00000m   66.8292m 
   64.10000m   66.8206m 
   64.20000m   66.8119m 
   64.30000m   66.8032m 
   64.40000m   66.7945m 
   64.50000m   66.7859m 
   64.60000m   66.7772m 
   64.70000m   66.7685m 
   64.80000m   66.7598m 
   64.90000m   66.7512m 
   65.00000m   66.7425m 
   65.10000m   66.7338m 
   65.20000m   66.7251m 
   65.30000m   66.7165m 
   65.40000m   66.7078m 
   65.50000m   66.6991m 
   65.60000m   66.6905m 
   65.70000m   66.6818m 
   65.80000m   66.6731m 
   65.90000m   66.6645m 
   66.00000m   66.6558m 
   66.10000m   66.6471m 
   66.20000m   66.6385m 
   66.30000m   66.6298m 
   66.40000m   66.6211m 
   66.50000m   66.6125m 
   66.60000m   66.6038m 
   66.70000m   66.5951m 
   66.80000m   66.5865m 
   66.90000m   66.5778m 
   67.00000m   66.5692m 
   67.10000m   66.5605m 
   67.20000m   66.5518m 
   67.30000m   66.5432m 
   67.40000m   66.5345m 
   67.50000m   66.5259m 
   67.60000m   66.5172m 
   67.70000m   66.5085m 
   67.80000m   66.4999m 
   67.90000m   66.4912m 
   68.00000m   66.4826m 
   68.10000m   66.4739m 
   68.20000m   66.4653m 
   68.30000m   66.4566m 
   68.40000m   66.4480m 
   68.50000m   66.4393m 
   68.60000m   66.4307m 
   68.70000m   66.4220m 
   68.80000m   66.4133m 
   68.90000m   66.4047m 
   69.00000m   66.3960m 
   69.10000m   66.3874m 
   69.20000m   66.3787m 
   69.30000m   66.3701m 
   69.40000m   66.3615m 
   69.50000m   66.3528m 
   69.60000m   66.3442m 
   69.70000m   66.3355m 
   69.80000m   66.3269m 
   69.90000m   66.3182m 
   70.00000m   66.3096m 
   70.10000m   66.3009m 
   70.20000m   66.2923m 
   70.30000m   66.2836m 
   70.40000m   66.2750m 
   70.50000m   66.2664m 
   70.60000m   66.2577m 
   70.70000m   66.2491m 
   70.80000m   66.2404m 
   70.90000m   66.2318m 
   71.00000m   66.2232m 
   71.10000m   66.2145m 
   71.20000m   66.2059m 
   71.30000m   66.1972m 
   71.40000m   66.1886m 
   71.50000m   66.1800m 
   71.60000m   66.1713m 
   71.70000m   66.1627m 
   71.80000m   66.1541m 
   71.90000m   66.1454m 
   72.00000m   66.1368m 
   72.10000m   66.1282m 
   72.20000m   66.1195m 
   72.30000m   66.1109m 
   72.40000m   66.1023m 
   72.50000m   66.0936m 
   72.60000m   66.0850m 
   72.70000m   66.0764m 
   72.80000m   66.0677m 
   72.90000m   66.0591m 
   73.00000m   66.0505m 
   73.10000m   66.0419m 
   73.20000m   66.0332m 
   73.30000m   66.0246m 
   73.40000m   66.0160m 
   73.50000m   66.0074m 
   73.60000m   65.9987m 
   73.70000m   65.9901m 
   73.80000m   65.9815m 
   73.90000m   65.9729m 
   74.00000m   65.9642m 
   74.10000m   65.9556m 
   74.20000m   65.9470m 
   74.30000m   65.9384m 
   74.40000m   65.9297m 
   74.50000m   65.9211m 
   74.60000m   65.9125m 
   74.70000m   65.9039m 
   74.80000m   65.8953m 
   74.90000m   65.8867m 
   75.00000m   65.8780m 
   75.10000m   65.8694m 
   75.20000m   65.8608m 
   75.30000m   65.8522m 
   75.40000m   65.8436m 
   75.50000m   65.8350m 
   75.60000m   65.8263m 
   75.70000m   65.8177m 
   75.80000m   65.8091m 
   75.90000m   65.8005m 
   76.00000m   65.7919m 
   76.10000m   65.7833m 
   76.20000m   65.7747m 
   76.30000m   65.7661m 
   76.40000m   65.7574m 
   76.50000m   65.7488m 
   76.60000m   65.7402m 
   76.70000m   65.7316m 
   76.80000m   65.7230m 
   76.90000m   65.7144m 
   77.00000m   65.7058m 
   77.10000m   65.6972m 
   77.20000m   65.6886m 
   77.30000m   65.6800m 
   77.40000m   65.6714m 
   77.50000m   65.6628m 
   77.60000m   65.6542m 
   77.70000m   65.6456m 
   77.80000m   65.6370m 
   77.90000m   65.6284m 
   78.00000m   65.6198m 
   78.10000m   65.6112m 
   78.20000m   65.6026m 
   78.30000m   65.5940m 
   78.40000m   65.5854m 
   78.50000m   65.5768m 
   78.60000m   65.5682m 
   78.70000m   65.5596m 
   78.80000m   65.5510m 
   78.90000m   65.5424m 
   79.00000m   65.5338m 
   79.10000m   65.5252m 
   79.20000m   65.5166m 
   79.30000m   65.5080m 
   79.40000m   65.4994m 
   79.50000m   65.4908m 
   79.60000m   65.4822m 
   79.70000m   65.4736m 
   79.80000m   65.4650m 
   79.90000m   65.4565m 
   80.00000m   65.4479m 
   80.10000m   65.4393m 
   80.20000m   65.4307m 
   80.30000m   65.4221m 
   80.40000m   65.4135m 
   80.50000m   65.4049m 
   80.60000m   65.3963m 
   80.70000m   65.3878m 
   80.80000m   65.3792m 
   80.90000m   65.3706m 
   81.00000m   65.3620m 
   81.10000m   65.3534m 
   81.20000m   65.3448m 
   81.30000m   65.3362m 
   81.40000m   65.3277m 
   81.50000m   65.3191m 
   81.60000m   65.3105m 
   81.70000m   65.3019m 
   81.80000m   65.2933m 
   81.90000m   65.2848m 
   82.00000m   65.2762m 
   82.10000m   65.2676m 
   82.20000m   65.2590m 
   82.30000m   65.2504m 
   82.40000m   65.2419m 
   82.50000m   65.2333m 
   82.60000m   65.2247m 
   82.70000m   65.2161m 
   82.80000m   65.2076m 
   82.90000m   65.1990m 
   83.00000m   65.1904m 
   83.10000m   65.1818m 
   83.20000m   65.1733m 
   83.30000m   65.1647m 
   83.40000m   65.1561m 
   83.50000m   65.1476m 
   83.60000m   65.1390m 
   83.70000m   65.1304m 
   83.80000m   65.1219m 
   83.90000m   65.1133m 
   84.00000m   65.1047m 
   84.10000m   65.0961m 
   84.20000m   65.0876m 
   84.30000m   65.0790m 
   84.40000m   65.0704m 
   84.50000m   65.0619m 
   84.60000m   65.0533m 
   84.70000m   65.0448m 
   84.80000m   65.0362m 
   84.90000m   65.0276m 
   85.00000m   65.0191m 
   85.10000m   65.0105m 
   85.20000m   65.0019m 
   85.30000m   64.9934m 
   85.40000m   64.9848m 
   85.50000m   64.9763m 
   85.60000m   64.9677m 
   85.70000m   64.9591m 
   85.80000m   64.9506m 
   85.90000m   64.9420m 
   86.00000m   64.9335m 
   86.10000m   64.9249m 
   86.20000m   64.9164m 
   86.30000m   64.9078m 
   86.40000m   64.8992m 
   86.50000m   64.8907m 
   86.60000m   64.8821m 
   86.70000m   64.8736m 
   86.80000m   64.8650m 
   86.90000m   64.8565m 
   87.00000m   64.8479m 
   87.10000m   64.8394m 
   87.20000m   64.8308m 
   87.30000m   64.8223m 
   87.40000m   64.8137m 
   87.50000m   64.8052m 
   87.60000m   64.7966m 
   87.70000m   64.7881m 
   87.80000m   64.7795m 
   87.90000m   64.7710m 
   88.00000m   64.7624m 
   88.10000m   64.7539m 
   88.20000m   64.7453m 
   88.30000m   64.7368m 
   88.40000m   64.7283m 
   88.50000m   64.7197m 
   88.60000m   64.7112m 
   88.70000m   64.7026m 
   88.80000m   64.6941m 
   88.90000m   64.6855m 
   89.00000m   64.6770m 
   89.10000m   64.6685m 
   89.20000m   64.6599m 
   89.30000m   64.6514m 
   89.40000m   64.6428m 
   89.50000m   64.6343m 
   89.60000m   64.6258m 
   89.70000m   64.6172m 
   89.80000m   64.6087m 
   89.90000m   64.6002m 
   90.00000m   64.5916m 
   90.10000m   64.5831m 
   90.20000m   64.5746m 
   90.30000m   64.5660m 
   90.40000m   64.5575m 
   90.50000m   64.5490m 
   90.60000m   64.5404m 
   90.70000m   64.5319m 
   90.80000m   64.5234m 
   90.90000m   64.5148m 
   91.00000m   64.5063m 
   91.10000m   64.4978m 
   91.20000m   64.4892m 
   91.30000m   64.4807m 
   91.40000m   64.4722m 
   91.50000m   64.4637m 
   91.60000m   64.4551m 
   91.70000m   64.4466m 
   91.80000m   64.4381m 
   91.90000m   64.4296m 
   92.00000m   64.4210m 
   92.10000m   64.4125m 
   92.20000m   64.4040m 
   92.30000m   64.3955m 
   92.40000m   64.3869m 
   92.50000m   64.3784m 
   92.60000m   64.3699m 
   92.70000m   64.3614m 
   92.80000m   64.3529m 
   92.90000m   64.3443m 
   93.00000m   64.3358m 
   93.10000m   64.3273m 
   93.20000m   64.3188m 
   93.30000m   64.3103m 
   93.40000m   64.3018m 
   93.50000m   64.2932m 
   93.60000m   64.2847m 
   93.70000m   64.2762m 
   93.80000m   64.2677m 
   93.90000m   64.2592m 
   94.00000m   64.2507m 
   94.10000m   64.2421m 
   94.20000m   64.2336m 
   94.30000m   64.2251m 
   94.40000m   64.2166m 
   94.50000m   64.2081m 
   94.60000m   64.1996m 
   94.70000m   64.1911m 
   94.80000m   64.1826m 
   94.90000m   64.1741m 
   95.00000m   64.1656m 
   95.10000m   64.1570m 
   95.20000m   64.1485m 
   95.30000m   64.1400m 
   95.40000m   64.1315m 
   95.50000m   64.1230m 
   95.60000m   64.1145m 
   95.70000m   64.1060m 
   95.80000m   64.0975m 
   95.90000m   64.0890m 
   96.00000m   64.0805m 
   96.10000m   64.0720m 
   96.20000m   64.0635m 
   96.30000m   64.0550m 
   96.40000m   64.0465m 
   96.50000m   64.0380m 
   96.60000m   64.0295m 
   96.70000m   64.0210m 
   96.80000m   64.0125m 
   96.90000m   64.0040m 
   97.00000m   63.9955m 
   97.10000m   63.9870m 
   97.20000m   63.9785m 
   97.30000m   63.9700m 
   97.40000m   63.9615m 
   97.50000m   63.9530m 
   97.60000m   63.9445m 
   97.70000m   63.9360m 
   97.80000m   63.9275m 
   97.90000m   63.9191m 
   98.00000m   63.9106m 
   98.10000m   63.9021m 
   98.20000m   63.8936m 
   98.30000m   63.8851m 
   98.40000m   63.8766m 
   98.50000m   63.8681m 
   98.60000m   63.8596m 
   98.70000m   63.8511m 
   98.80000m   63.8427m 
   98.90000m   63.8342m 
   99.00000m   63.8257m 
   99.10000m   63.8172m 
   99.20000m   63.8087m 
   99.30000m   63.8002m 
   99.40000m   63.7917m 
   99.50000m   63.7833m 
   99.60000m   63.7748m 
   99.70000m   63.7663m 
   99.80000m   63.7578m 
   99.90000m   63.7493m 
  100.00000m   63.7408m 
  100.10000m   63.7324m 
  100.20000m   63.7239m 
  100.30000m   63.7154m 
  100.40000m   63.7069m 
  100.50000m   63.6984m 
  100.60000m   63.6900m 
  100.70000m   63.6815m 
  100.80000m   63.6730m 
  100.90000m   63.6645m 
  101.00000m   63.6561m 
  101.10000m   63.6476m 
  101.20000m   63.6391m 
  101.30000m   63.6306m 
  101.40000m   63.6222m 
  101.50000m   63.6137m 
  101.60000m   63.6052m 
  101.70000m   63.5968m 
  101.80000m   63.5883m 
  101.90000m   63.5798m 
  102.00000m   63.5713m 
  102.10000m   63.5629m 
  102.20000m   63.5544m 
  102.30000m   63.5459m 
  102.40000m   63.5375m 
  102.50000m   63.5290m 
  102.60000m   63.5205m 
  102.70000m   63.5121m 
  102.80000m   63.5036m 
  102.90000m   63.4951m 
  103.00000m   63.4867m 
  103.10000m   63.4782m 
  103.20000m   63.4697m 
  103.30000m   63.4613m 
  103.40000m   63.4528m 
  103.50000m   63.4444m 
  103.60000m   63.4359m 
  103.70000m   63.4274m 
  103.80000m   63.4190m 
  103.90000m   63.4105m 
  104.00000m   63.4021m 
  104.10000m   63.3936m 
  104.20000m   63.3851m 
  104.30000m   63.3767m 
  104.40000m   63.3682m 
  104.50000m   63.3598m 
  104.60000m   63.3513m 
  104.70000m   63.3429m 
  104.80000m   63.3344m 
  104.90000m   63.3259m 
  105.00000m   63.3175m 
  105.10000m   63.3090m 
  105.20000m   63.3006m 
  105.30000m   63.2921m 
  105.40000m   63.2837m 
  105.50000m   63.2752m 
  105.60000m   63.2668m 
  105.70000m   63.2583m 
  105.80000m   63.2499m 
  105.90000m   63.2414m 
  106.00000m   63.2330m 
  106.10000m   63.2245m 
  106.20000m   63.2161m 
  106.30000m   63.2076m 
  106.40000m   63.1992m 
  106.50000m   63.1908m 
  106.60000m   63.1823m 
  106.70000m   63.1739m 
  106.80000m   63.1654m 
  106.90000m   63.1570m 
  107.00000m   63.1485m 
  107.10000m   63.1401m 
  107.20000m   63.1316m 
  107.30000m   63.1232m 
  107.40000m   63.1148m 
  107.50000m   63.1063m 
  107.60000m   63.0979m 
  107.70000m   63.0894m 
  107.80000m   63.0810m 
  107.90000m   63.0726m 
  108.00000m   63.0641m 
  108.10000m   63.0557m 
  108.20000m   63.0473m 
  108.30000m   63.0388m 
  108.40000m   63.0304m 
  108.50000m   63.0220m 
  108.60000m   63.0135m 
  108.70000m   63.0051m 
  108.80000m   62.9967m 
  108.90000m   62.9882m 
  109.00000m   62.9798m 
  109.10000m   62.9714m 
  109.20000m   62.9629m 
  109.30000m   62.9545m 
  109.40000m   62.9461m 
  109.50000m   62.9376m 
  109.60000m   62.9292m 
  109.70000m   62.9208m 
  109.80000m   62.9124m 
  109.90000m   62.9039m 
  110.00000m   62.8955m 
  110.10000m   62.8871m 
  110.20000m   62.8786m 
  110.30000m   62.8702m 
  110.40000m   62.8618m 
  110.50000m   62.8534m 
  110.60000m   62.8450m 
  110.70000m   62.8365m 
  110.80000m   62.8281m 
  110.90000m   62.8197m 
  111.00000m   62.8113m 
  111.10000m   62.8028m 
  111.20000m   62.7944m 
  111.30000m   62.7860m 
  111.40000m   62.7776m 
  111.50000m   62.7692m 
  111.60000m   62.7607m 
  111.70000m   62.7523m 
  111.80000m   62.7439m 
  111.90000m   62.7355m 
  112.00000m   62.7271m 
  112.10000m   62.7187m 
  112.20000m   62.7103m 
  112.30000m   62.7018m 
  112.40000m   62.6934m 
  112.50000m   62.6850m 
  112.60000m   62.6766m 
  112.70000m   62.6682m 
  112.80000m   62.6598m 
  112.90000m   62.6514m 
  113.00000m   62.6430m 
  113.10000m   62.6345m 
  113.20000m   62.6261m 
  113.30000m   62.6177m 
  113.40000m   62.6093m 
  113.50000m   62.6009m 
  113.60000m   62.5925m 
  113.70000m   62.5841m 
  113.80000m   62.5757m 
  113.90000m   62.5673m 
  114.00000m   62.5589m 
  114.10000m   62.5505m 
  114.20000m   62.5421m 
  114.30000m   62.5337m 
  114.40000m   62.5253m 
  114.50000m   62.5169m 
  114.60000m   62.5085m 
  114.70000m   62.5001m 
  114.80000m   62.4917m 
  114.90000m   62.4833m 
  115.00000m   62.4749m 
  115.10000m   62.4665m 
  115.20000m   62.4581m 
  115.30000m   62.4497m 
  115.40000m   62.4413m 
  115.50000m   62.4329m 
  115.60000m   62.4245m 
  115.70000m   62.4161m 
  115.80000m   62.4077m 
  115.90000m   62.3993m 
  116.00000m   62.3909m 
  116.10000m   62.3825m 
  116.20000m   62.3741m 
  116.30000m   62.3657m 
  116.40000m   62.3573m 
  116.50000m   62.3489m 
  116.60000m   62.3405m 
  116.70000m   62.3322m 
  116.80000m   62.3238m 
  116.90000m   62.3154m 
  117.00000m   62.3070m 
  117.10000m   62.2986m 
  117.20000m   62.2902m 
  117.30000m   62.2818m 
  117.40000m   62.2734m 
  117.50000m   62.2651m 
  117.60000m   62.2567m 
  117.70000m   62.2483m 
  117.80000m   62.2399m 
  117.90000m   62.2315m 
  118.00000m   62.2231m 
  118.10000m   62.2147m 
  118.20000m   62.2064m 
  118.30000m   62.1980m 
  118.40000m   62.1896m 
  118.50000m   62.1812m 
  118.60000m   62.1728m 
  118.70000m   62.1645m 
  118.80000m   62.1561m 
  118.90000m   62.1477m 
  119.00000m   62.1393m 
  119.10000m   62.1309m 
  119.20000m   62.1226m 
  119.30000m   62.1142m 
  119.40000m   62.1058m 
  119.50000m   62.0974m 
  119.60000m   62.0891m 
  119.70000m   62.0807m 
  119.80000m   62.0723m 
  119.90000m   62.0639m 
  120.00000m   62.0556m 
  120.10000m   62.0472m 
  120.20000m   62.0388m 
  120.30000m   62.0305m 
  120.40000m   62.0221m 
  120.50000m   62.0137m 
  120.60000m   62.0054m 
  120.70000m   61.9970m 
  120.80000m   61.9886m 
  120.90000m   61.9802m 
  121.00000m   61.9719m 
  121.10000m   61.9635m 
  121.20000m   61.9551m 
  121.30000m   61.9468m 
  121.40000m   61.9384m 
  121.50000m   61.9301m 
  121.60000m   61.9217m 
  121.70000m   61.9133m 
  121.80000m   61.9050m 
  121.90000m   61.8966m 
  122.00000m   61.8882m 
  122.10000m   61.8799m 
  122.20000m   61.8715m 
  122.30000m   61.8632m 
  122.40000m   61.8548m 
  122.50000m   61.8464m 
  122.60000m   61.8381m 
  122.70000m   61.8297m 
  122.80000m   61.8214m 
  122.90000m   61.8130m 
  123.00000m   61.8047m 
  123.10000m   61.7963m 
  123.20000m   61.7879m 
  123.30000m   61.7796m 
  123.40000m   61.7712m 
  123.50000m   61.7629m 
  123.60000m   61.7545m 
  123.70000m   61.7462m 
  123.80000m   61.7378m 
  123.90000m   61.7295m 
  124.00000m   61.7211m 
  124.10000m   61.7128m 
  124.20000m   61.7044m 
  124.30000m   61.6961m 
  124.40000m   61.6877m 
  124.50000m   61.6794m 
  124.60000m   61.6710m 
  124.70000m   61.6627m 
  124.80000m   61.6543m 
  124.90000m   61.6460m 
  125.00000m   61.6376m 
  125.10000m   61.6293m 
  125.20000m   61.6210m 
  125.30000m   61.6126m 
  125.40000m   61.6043m 
  125.50000m   61.5959m 
  125.60000m   61.5876m 
  125.70000m   61.5792m 
  125.80000m   61.5709m 
  125.90000m   61.5626m 
  126.00000m   61.5542m 
  126.10000m   61.5459m 
  126.20000m   61.5375m 
  126.30000m   61.5292m 
  126.40000m   61.5209m 
  126.50000m   61.5125m 
  126.60000m   61.5042m 
  126.70000m   61.4959m 
  126.80000m   61.4875m 
  126.90000m   61.4792m 
  127.00000m   61.4708m 
  127.10000m   61.4625m 
  127.20000m   61.4542m 
  127.30000m   61.4458m 
  127.40000m   61.4375m 
  127.50000m   61.4292m 
  127.60000m   61.4208m 
  127.70000m   61.4125m 
  127.80000m   61.4042m 
  127.90000m   61.3959m 
  128.00000m   61.3875m 
  128.10000m   61.3792m 
  128.20000m   61.3709m 
  128.30000m   61.3625m 
  128.40000m   61.3542m 
  128.50000m   61.3459m 
  128.60000m   61.3376m 
  128.70000m   61.3292m 
  128.80000m   61.3209m 
  128.90000m   61.3126m 
  129.00000m   61.3043m 
  129.10000m   61.2959m 
  129.20000m   61.2876m 
  129.30000m   61.2793m 
  129.40000m   61.2710m 
  129.50000m   61.2627m 
  129.60000m   61.2543m 
  129.70000m   61.2460m 
  129.80000m   61.2377m 
  129.90000m   61.2294m 
  130.00000m   61.2211m 
  130.10000m   61.2127m 
  130.20000m   61.2044m 
  130.30000m   61.1961m 
  130.40000m   61.1878m 
  130.50000m   61.1795m 
  130.60000m   61.1712m 
  130.70000m   61.1628m 
  130.80000m   61.1545m 
  130.90000m   61.1462m 
  131.00000m   61.1379m 
  131.10000m   61.1296m 
  131.20000m   61.1213m 
  131.30000m   61.1130m 
  131.40000m   61.1047m 
  131.50000m   61.0963m 
  131.60000m   61.0880m 
  131.70000m   61.0797m 
  131.80000m   61.0714m 
  131.90000m   61.0631m 
  132.00000m   61.0548m 
  132.10000m   61.0465m 
  132.20000m   61.0382m 
  132.30000m   61.0299m 
  132.40000m   61.0216m 
  132.50000m   61.0133m 
  132.60000m   61.0050m 
  132.70000m   60.9967m 
  132.80000m   60.9884m 
  132.90000m   60.9801m 
  133.00000m   60.9718m 
  133.10000m   60.9634m 
  133.20000m   60.9551m 
  133.30000m   60.9468m 
  133.40000m   60.9385m 
  133.50000m   60.9302m 
  133.60000m   60.9219m 
  133.70000m   60.9136m 
  133.80000m   60.9054m 
  133.90000m   60.8971m 
  134.00000m   60.8888m 
  134.10000m   60.8805m 
  134.20000m   60.8722m 
  134.30000m   60.8639m 
  134.40000m   60.8556m 
  134.50000m   60.8473m 
  134.60000m   60.8390m 
  134.70000m   60.8307m 
  134.80000m   60.8224m 
  134.90000m   60.8141m 
  135.00000m   60.8058m 
  135.10000m   60.7975m 
  135.20000m   60.7892m 
  135.30000m   60.7809m 
  135.40000m   60.7727m 
  135.50000m   60.7644m 
  135.60000m   60.7561m 
  135.70000m   60.7478m 
  135.80000m   60.7395m 
  135.90000m   60.7312m 
  136.00000m   60.7229m 
  136.10000m   60.7146m 
  136.20000m   60.7064m 
  136.30000m   60.6981m 
  136.40000m   60.6898m 
  136.50000m   60.6815m 
  136.60000m   60.6732m 
  136.70000m   60.6649m 
  136.80000m   60.6567m 
  136.90000m   60.6484m 
  137.00000m   60.6401m 
  137.10000m   60.6318m 
  137.20000m   60.6235m 
  137.30000m   60.6153m 
  137.40000m   60.6070m 
  137.50000m   60.5987m 
  137.60000m   60.5904m 
  137.70000m   60.5821m 
  137.80000m   60.5739m 
  137.90000m   60.5656m 
  138.00000m   60.5573m 
  138.10000m   60.5490m 
  138.20000m   60.5408m 
  138.30000m   60.5325m 
  138.40000m   60.5242m 
  138.50000m   60.5159m 
  138.60000m   60.5077m 
  138.70000m   60.4994m 
  138.80000m   60.4911m 
  138.90000m   60.4829m 
  139.00000m   60.4746m 
  139.10000m   60.4663m 
  139.20000m   60.4581m 
  139.30000m   60.4498m 
  139.40000m   60.4415m 
  139.50000m   60.4332m 
  139.60000m   60.4250m 
  139.70000m   60.4167m 
  139.80000m   60.4084m 
  139.90000m   60.4002m 
  140.00000m   60.3919m 
  140.10000m   60.3837m 
  140.20000m   60.3754m 
  140.30000m   60.3671m 
  140.40000m   60.3589m 
  140.50000m   60.3506m 
  140.60000m   60.3423m 
  140.70000m   60.3341m 
  140.80000m   60.3258m 
  140.90000m   60.3176m 
  141.00000m   60.3093m 
  141.10000m   60.3010m 
  141.20000m   60.2928m 
  141.30000m   60.2845m 
  141.40000m   60.2763m 
  141.50000m   60.2680m 
  141.60000m   60.2598m 
  141.70000m   60.2515m 
  141.80000m   60.2432m 
  141.90000m   60.2350m 
  142.00000m   60.2267m 
  142.10000m   60.2185m 
  142.20000m   60.2102m 
  142.30000m   60.2020m 
  142.40000m   60.1937m 
  142.50000m   60.1855m 
  142.60000m   60.1772m 
  142.70000m   60.1690m 
  142.80000m   60.1607m 
  142.90000m   60.1525m 
  143.00000m   60.1442m 
  143.10000m   60.1360m 
  143.20000m   60.1277m 
  143.30000m   60.1195m 
  143.40000m   60.1112m 
  143.50000m   60.1030m 
  143.60000m   60.0947m 
  143.70000m   60.0865m 
  143.80000m   60.0783m 
  143.90000m   60.0700m 
  144.00000m   60.0618m 
  144.10000m   60.0535m 
  144.20000m   60.0453m 
  144.30000m   60.0370m 
  144.40000m   60.0288m 
  144.50000m   60.0206m 
  144.60000m   60.0123m 
  144.70000m   60.0041m 
  144.80000m   59.9958m 
  144.90000m   59.9876m 
  145.00000m   59.9794m 
  145.10000m   59.9711m 
  145.20000m   59.9629m 
  145.30000m   59.9547m 
  145.40000m   59.9464m 
  145.50000m   59.9382m 
  145.60000m   59.9299m 
  145.70000m   59.9217m 
  145.80000m   59.9135m 
  145.90000m   59.9052m 
  146.00000m   59.8970m 
  146.10000m   59.8888m 
  146.20000m   59.8805m 
  146.30000m   59.8723m 
  146.40000m   59.8641m 
  146.50000m   59.8559m 
  146.60000m   59.8476m 
  146.70000m   59.8394m 
  146.80000m   59.8312m 
  146.90000m   59.8229m 
  147.00000m   59.8147m 
  147.10000m   59.8065m 
  147.20000m   59.7983m 
  147.30000m   59.7900m 
  147.40000m   59.7818m 
  147.50000m   59.7736m 
  147.60000m   59.7654m 
  147.70000m   59.7571m 
  147.80000m   59.7489m 
  147.90000m   59.7407m 
  148.00000m   59.7325m 
  148.10000m   59.7243m 
  148.20000m   59.7160m 
  148.30000m   59.7078m 
  148.40000m   59.6996m 
  148.50000m   59.6914m 
  148.60000m   59.6832m 
  148.70000m   59.6749m 
  148.80000m   59.6667m 
  148.90000m   59.6585m 
  149.00000m   59.6503m 
  149.10000m   59.6421m 
  149.20000m   59.6339m 
  149.30000m   59.6256m 
  149.40000m   59.6174m 
  149.50000m   59.6092m 
  149.60000m   59.6010m 
  149.70000m   59.5928m 
  149.80000m   59.5846m 
  149.90000m   59.5764m 
  150.00000m   59.5681m 
  150.10000m   59.5599m 
  150.20000m   59.5517m 
  150.30000m   59.5435m 
  150.40000m   59.5353m 
  150.50000m   59.5271m 
  150.60000m   59.5189m 
  150.70000m   59.5107m 
  150.80000m   59.5025m 
  150.90000m   59.4943m 
  151.00000m   59.4861m 
  151.10000m   59.4779m 
  151.20000m   59.4697m 
  151.30000m   59.4614m 
  151.40000m   59.4532m 
  151.50000m   59.4450m 
  151.60000m   59.4368m 
  151.70000m   59.4286m 
  151.80000m   59.4204m 
  151.90000m   59.4122m 
  152.00000m   59.4040m 
  152.10000m   59.3958m 
  152.20000m   59.3876m 
  152.30000m   59.3794m 
  152.40000m   59.3712m 
  152.50000m   59.3630m 
  152.60000m   59.3548m 
  152.70000m   59.3466m 
  152.80000m   59.3384m 
  152.90000m   59.3303m 
  153.00000m   59.3221m 
  153.10000m   59.3139m 
  153.20000m   59.3057m 
  153.30000m   59.2975m 
  153.40000m   59.2893m 
  153.50000m   59.2811m 
  153.60000m   59.2729m 
  153.70000m   59.2647m 
  153.80000m   59.2565m 
  153.90000m   59.2483m 
  154.00000m   59.2401m 
  154.10000m   59.2319m 
  154.20000m   59.2238m 
  154.30000m   59.2156m 
  154.40000m   59.2074m 
  154.50000m   59.1992m 
  154.60000m   59.1910m 
  154.70000m   59.1828m 
  154.80000m   59.1746m 
  154.90000m   59.1664m 
  155.00000m   59.1583m 
  155.10000m   59.1501m 
  155.20000m   59.1419m 
  155.30000m   59.1337m 
  155.40000m   59.1255m 
  155.50000m   59.1173m 
  155.60000m   59.1092m 
  155.70000m   59.1010m 
  155.80000m   59.0928m 
  155.90000m   59.0846m 
  156.00000m   59.0764m 
  156.10000m   59.0683m 
  156.20000m   59.0601m 
  156.30000m   59.0519m 
  156.40000m   59.0437m 
  156.50000m   59.0356m 
  156.60000m   59.0274m 
  156.70000m   59.0192m 
  156.80000m   59.0110m 
  156.90000m   59.0029m 
  157.00000m   58.9947m 
  157.10000m   58.9865m 
  157.20000m   58.9783m 
  157.30000m   58.9702m 
  157.40000m   58.9620m 
  157.50000m   58.9538m 
  157.60000m   58.9457m 
  157.70000m   58.9375m 
  157.80000m   58.9293m 
  157.90000m   58.9211m 
  158.00000m   58.9130m 
  158.10000m   58.9048m 
  158.20000m   58.8966m 
  158.30000m   58.8885m 
  158.40000m   58.8803m 
  158.50000m   58.8721m 
  158.60000m   58.8640m 
  158.70000m   58.8558m 
  158.80000m   58.8476m 
  158.90000m   58.8395m 
  159.00000m   58.8313m 
  159.10000m   58.8232m 
  159.20000m   58.8150m 
  159.30000m   58.8068m 
  159.40000m   58.7987m 
  159.50000m   58.7905m 
  159.60000m   58.7824m 
  159.70000m   58.7742m 
  159.80000m   58.7660m 
  159.90000m   58.7579m 
  160.00000m   58.7497m 
  160.10000m   58.7416m 
  160.20000m   58.7334m 
  160.30000m   58.7252m 
  160.40000m   58.7171m 
  160.50000m   58.7089m 
  160.60000m   58.7008m 
  160.70000m   58.6926m 
  160.80000m   58.6845m 
  160.90000m   58.6763m 
  161.00000m   58.6682m 
  161.10000m   58.6600m 
  161.20000m   58.6519m 
  161.30000m   58.6437m 
  161.40000m   58.6356m 
  161.50000m   58.6274m 
  161.60000m   58.6193m 
  161.70000m   58.6111m 
  161.80000m   58.6030m 
  161.90000m   58.5948m 
  162.00000m   58.5867m 
  162.10000m   58.5785m 
  162.20000m   58.5704m 
  162.30000m   58.5622m 
  162.40000m   58.5541m 
  162.50000m   58.5459m 
  162.60000m   58.5378m 
  162.70000m   58.5297m 
  162.80000m   58.5215m 
  162.90000m   58.5134m 
  163.00000m   58.5052m 
  163.10000m   58.4971m 
  163.20000m   58.4889m 
  163.30000m   58.4808m 
  163.40000m   58.4727m 
  163.50000m   58.4645m 
  163.60000m   58.4564m 
  163.70000m   58.4482m 
  163.80000m   58.4401m 
  163.90000m   58.4320m 
  164.00000m   58.4238m 
  164.10000m   58.4157m 
  164.20000m   58.4076m 
  164.30000m   58.3994m 
  164.40000m   58.3913m 
  164.50000m   58.3832m 
  164.60000m   58.3750m 
  164.70000m   58.3669m 
  164.80000m   58.3588m 
  164.90000m   58.3506m 
  165.00000m   58.3425m 
  165.10000m   58.3344m 
  165.20000m   58.3262m 
  165.30000m   58.3181m 
  165.40000m   58.3100m 
  165.50000m   58.3018m 
  165.60000m   58.2937m 
  165.70000m   58.2856m 
  165.80000m   58.2775m 
  165.90000m   58.2693m 
  166.00000m   58.2612m 
  166.10000m   58.2531m 
  166.20000m   58.2450m 
  166.30000m   58.2368m 
  166.40000m   58.2287m 
  166.50000m   58.2206m 
  166.60000m   58.2125m 
  166.70000m   58.2043m 
  166.80000m   58.1962m 
  166.90000m   58.1881m 
  167.00000m   58.1800m 
  167.10000m   58.1719m 
  167.20000m   58.1637m 
  167.30000m   58.1556m 
  167.40000m   58.1475m 
  167.50000m   58.1394m 
  167.60000m   58.1313m 
  167.70000m   58.1231m 
  167.80000m   58.1150m 
  167.90000m   58.1069m 
  168.00000m   58.0988m 
  168.10000m   58.0907m 
  168.20000m   58.0826m 
  168.30000m   58.0745m 
  168.40000m   58.0663m 
  168.50000m   58.0582m 
  168.60000m   58.0501m 
  168.70000m   58.0420m 
  168.80000m   58.0339m 
  168.90000m   58.0258m 
  169.00000m   58.0177m 
  169.10000m   58.0096m 
  169.20000m   58.0015m 
  169.30000m   57.9933m 
  169.40000m   57.9852m 
  169.50000m   57.9771m 
  169.60000m   57.9690m 
  169.70000m   57.9609m 
  169.80000m   57.9528m 
  169.90000m   57.9447m 
  170.00000m   57.9366m 
  170.10000m   57.9285m 
  170.20000m   57.9204m 
  170.30000m   57.9123m 
  170.40000m   57.9042m 
  170.50000m   57.8961m 
  170.60000m   57.8880m 
  170.70000m   57.8799m 
  170.80000m   57.8718m 
  170.90000m   57.8637m 
  171.00000m   57.8556m 
  171.10000m   57.8475m 
  171.20000m   57.8394m 
  171.30000m   57.8313m 
  171.40000m   57.8232m 
  171.50000m   57.8151m 
  171.60000m   57.8070m 
  171.70000m   57.7989m 
  171.80000m   57.7908m 
  171.90000m   57.7827m 
  172.00000m   57.7746m 
  172.10000m   57.7665m 
  172.20000m   57.7584m 
  172.30000m   57.7503m 
  172.40000m   57.7422m 
  172.50000m   57.7342m 
  172.60000m   57.7261m 
  172.70000m   57.7180m 
  172.80000m   57.7099m 
  172.90000m   57.7018m 
  173.00000m   57.6937m 
  173.10000m   57.6856m 
  173.20000m   57.6775m 
  173.30000m   57.6694m 
  173.40000m   57.6614m 
  173.50000m   57.6533m 
  173.60000m   57.6452m 
  173.70000m   57.6371m 
  173.80000m   57.6290m 
  173.90000m   57.6209m 
  174.00000m   57.6128m 
  174.10000m   57.6048m 
  174.20000m   57.5967m 
  174.30000m   57.5886m 
  174.40000m   57.5805m 
  174.50000m   57.5724m 
  174.60000m   57.5644m 
  174.70000m   57.5563m 
  174.80000m   57.5482m 
  174.90000m   57.5401m 
  175.00000m   57.5320m 
  175.10000m   57.5240m 
  175.20000m   57.5159m 
  175.30000m   57.5078m 
  175.40000m   57.4997m 
  175.50000m   57.4917m 
  175.60000m   57.4836m 
  175.70000m   57.4755m 
  175.80000m   57.4674m 
  175.90000m   57.4594m 
  176.00000m   57.4513m 
  176.10000m   57.4432m 
  176.20000m   57.4351m 
  176.30000m   57.4271m 
  176.40000m   57.4190m 
  176.50000m   57.4109m 
  176.60000m   57.4029m 
  176.70000m   57.3948m 
  176.80000m   57.3867m 
  176.90000m   57.3786m 
  177.00000m   57.3706m 
  177.10000m   57.3625m 
  177.20000m   57.3544m 
  177.30000m   57.3464m 
  177.40000m   57.3383m 
  177.50000m   57.3302m 
  177.60000m   57.3222m 
  177.70000m   57.3141m 
  177.80000m   57.3061m 
  177.90000m   57.2980m 
  178.00000m   57.2899m 
  178.10000m   57.2819m 
  178.20000m   57.2738m 
  178.30000m   57.2657m 
  178.40000m   57.2577m 
  178.50000m   57.2496m 
  178.60000m   57.2416m 
  178.70000m   57.2335m 
  178.80000m   57.2254m 
  178.90000m   57.2174m 
  179.00000m   57.2093m 
  179.10000m   57.2013m 
  179.20000m   57.1932m 
  179.30000m   57.1852m 
  179.40000m   57.1771m 
  179.50000m   57.1691m 
  179.60000m   57.1610m 
  179.70000m   57.1529m 
  179.80000m   57.1449m 
  179.90000m   57.1368m 
  180.00000m   57.1288m 
  180.10000m   57.1207m 
  180.20000m   57.1127m 
  180.30000m   57.1046m 
  180.40000m   57.0966m 
  180.50000m   57.0885m 
  180.60000m   57.0805m 
  180.70000m   57.0724m 
  180.80000m   57.0644m 
  180.90000m   57.0563m 
  181.00000m   57.0483m 
  181.10000m   57.0402m 
  181.20000m   57.0322m 
  181.30000m   57.0242m 
  181.40000m   57.0161m 
  181.50000m   57.0081m 
  181.60000m   57.0000m 
  181.70000m   56.9920m 
  181.80000m   56.9839m 
  181.90000m   56.9759m 
  182.00000m   56.9679m 
  182.10000m   56.9598m 
  182.20000m   56.9518m 
  182.30000m   56.9437m 
  182.40000m   56.9357m 
  182.50000m   56.9277m 
  182.60000m   56.9196m 
  182.70000m   56.9116m 
  182.80000m   56.9035m 
  182.90000m   56.8955m 
  183.00000m   56.8875m 
  183.10000m   56.8794m 
  183.20000m   56.8714m 
  183.30000m   56.8634m 
  183.40000m   56.8553m 
  183.50000m   56.8473m 
  183.60000m   56.8393m 
  183.70000m   56.8312m 
  183.80000m   56.8232m 
  183.90000m   56.8152m 
  184.00000m   56.8071m 
  184.10000m   56.7991m 
  184.20000m   56.7911m 
  184.30000m   56.7830m 
  184.40000m   56.7750m 
  184.50000m   56.7670m 
  184.60000m   56.7590m 
  184.70000m   56.7509m 
  184.80000m   56.7429m 
  184.90000m   56.7349m 
  185.00000m   56.7269m 
  185.10000m   56.7188m 
  185.20000m   56.7108m 
  185.30000m   56.7028m 
  185.40000m   56.6948m 
  185.50000m   56.6867m 
  185.60000m   56.6787m 
  185.70000m   56.6707m 
  185.80000m   56.6627m 
  185.90000m   56.6546m 
  186.00000m   56.6466m 
  186.10000m   56.6386m 
  186.20000m   56.6306m 
  186.30000m   56.6226m 
  186.40000m   56.6145m 
  186.50000m   56.6065m 
  186.60000m   56.5985m 
  186.70000m   56.5905m 
  186.80000m   56.5825m 
  186.90000m   56.5745m 
  187.00000m   56.5664m 
  187.10000m   56.5584m 
  187.20000m   56.5504m 
  187.30000m   56.5424m 
  187.40000m   56.5344m 
  187.50000m   56.5264m 
  187.60000m   56.5184m 
  187.70000m   56.5104m 
  187.80000m   56.5023m 
  187.90000m   56.4943m 
  188.00000m   56.4863m 
  188.10000m   56.4783m 
  188.20000m   56.4703m 
  188.30000m   56.4623m 
  188.40000m   56.4543m 
  188.50000m   56.4463m 
  188.60000m   56.4383m 
  188.70000m   56.4303m 
  188.80000m   56.4223m 
  188.90000m   56.4143m 
  189.00000m   56.4062m 
  189.10000m   56.3982m 
  189.20000m   56.3902m 
  189.30000m   56.3822m 
  189.40000m   56.3742m 
  189.50000m   56.3662m 
  189.60000m   56.3582m 
  189.70000m   56.3502m 
  189.80000m   56.3422m 
  189.90000m   56.3342m 
  190.00000m   56.3262m 
  190.10000m   56.3182m 
  190.20000m   56.3102m 
  190.30000m   56.3022m 
  190.40000m   56.2942m 
  190.50000m   56.2862m 
  190.60000m   56.2782m 
  190.70000m   56.2702m 
  190.80000m   56.2622m 
  190.90000m   56.2543m 
  191.00000m   56.2463m 
  191.10000m   56.2383m 
  191.20000m   56.2303m 
  191.30000m   56.2223m 
  191.40000m   56.2143m 
  191.50000m   56.2063m 
  191.60000m   56.1983m 
  191.70000m   56.1903m 
  191.80000m   56.1823m 
  191.90000m   56.1743m 
  192.00000m   56.1663m 
  192.10000m   56.1584m 
  192.20000m   56.1504m 
  192.30000m   56.1424m 
  192.40000m   56.1344m 
  192.50000m   56.1264m 
  192.60000m   56.1184m 
  192.70000m   56.1104m 
  192.80000m   56.1025m 
  192.90000m   56.0945m 
  193.00000m   56.0865m 
  193.10000m   56.0785m 
  193.20000m   56.0705m 
  193.30000m   56.0625m 
  193.40000m   56.0546m 
  193.50000m   56.0466m 
  193.60000m   56.0386m 
  193.70000m   56.0306m 
  193.80000m   56.0226m 
  193.90000m   56.0146m 
  194.00000m   56.0067m 
  194.10000m   55.9987m 
  194.20000m   55.9907m 
  194.30000m   55.9827m 
  194.40000m   55.9748m 
  194.50000m   55.9668m 
  194.60000m   55.9588m 
  194.70000m   55.9508m 
  194.80000m   55.9429m 
  194.90000m   55.9349m 
  195.00000m   55.9269m 
  195.10000m   55.9189m 
  195.20000m   55.9110m 
  195.30000m   55.9030m 
  195.40000m   55.8950m 
  195.50000m   55.8871m 
  195.60000m   55.8791m 
  195.70000m   55.8711m 
  195.80000m   55.8631m 
  195.90000m   55.8552m 
  196.00000m   55.8472m 
  196.10000m   55.8392m 
  196.20000m   55.8313m 
  196.30000m   55.8233m 
  196.40000m   55.8153m 
  196.50000m   55.8074m 
  196.60000m   55.7994m 
  196.70000m   55.7914m 
  196.80000m   55.7835m 
  196.90000m   55.7755m 
  197.00000m   55.7676m 
  197.10000m   55.7596m 
  197.20000m   55.7516m 
  197.30000m   55.7437m 
  197.40000m   55.7357m 
  197.50000m   55.7277m 
  197.60000m   55.7198m 
  197.70000m   55.7118m 
  197.80000m   55.7039m 
  197.90000m   55.6959m 
  198.00000m   55.6879m 
  198.10000m   55.6800m 
  198.20000m   55.6720m 
  198.30000m   55.6641m 
  198.40000m   55.6561m 
  198.50000m   55.6482m 
  198.60000m   55.6402m 
  198.70000m   55.6323m 
  198.80000m   55.6243m 
  198.90000m   55.6163m 
  199.00000m   55.6084m 
  199.10000m   55.6004m 
  199.20000m   55.5925m 
  199.30000m   55.5845m 
  199.40000m   55.5766m 
  199.50000m   55.5686m 
  199.60000m   55.5607m 
  199.70000m   55.5527m 
  199.80000m   55.5448m 
  199.90000m   55.5368m 
  200.00000m   55.5289m 
  200.10000m   55.5210m 
  200.20000m   55.5130m 
  200.30000m   55.5051m 
  200.40000m   55.4971m 
  200.50000m   55.4892m 
  200.60000m   55.4812m 
  200.70000m   55.4733m 
  200.80000m   55.4653m 
  200.90000m   55.4574m 
  201.00000m   55.4495m 
  201.10000m   55.4415m 
  201.20000m   55.4336m 
  201.30000m   55.4256m 
  201.40000m   55.4177m 
  201.50000m   55.4097m 
  201.60000m   55.4018m 
  201.70000m   55.3939m 
  201.80000m   55.3859m 
  201.90000m   55.3780m 
  202.00000m   55.3701m 
  202.10000m   55.3621m 
  202.20000m   55.3542m 
  202.30000m   55.3462m 
  202.40000m   55.3383m 
  202.50000m   55.3304m 
  202.60000m   55.3224m 
  202.70000m   55.3145m 
  202.80000m   55.3066m 
  202.90000m   55.2986m 
  203.00000m   55.2907m 
  203.10000m   55.2828m 
  203.20000m   55.2749m 
  203.30000m   55.2669m 
  203.40000m   55.2590m 
  203.50000m   55.2511m 
  203.60000m   55.2431m 
  203.70000m   55.2352m 
  203.80000m   55.2273m 
  203.90000m   55.2193m 
  204.00000m   55.2114m 
  204.10000m   55.2035m 
  204.20000m   55.1956m 
  204.30000m   55.1876m 
  204.40000m   55.1797m 
  204.50000m   55.1718m 
  204.60000m   55.1639m 
  204.70000m   55.1559m 
  204.80000m   55.1480m 
  204.90000m   55.1401m 
  205.00000m   55.1322m 
  205.10000m   55.1243m 
  205.20000m   55.1163m 
  205.30000m   55.1084m 
  205.40000m   55.1005m 
  205.50000m   55.0926m 
  205.60000m   55.0847m 
  205.70000m   55.0767m 
  205.80000m   55.0688m 
  205.90000m   55.0609m 
  206.00000m   55.0530m 
  206.10000m   55.0451m 
  206.20000m   55.0372m 
  206.30000m   55.0292m 
  206.40000m   55.0213m 
  206.50000m   55.0134m 
  206.60000m   55.0055m 
  206.70000m   54.9976m 
  206.80000m   54.9897m 
  206.90000m   54.9818m 
  207.00000m   54.9739m 
  207.10000m   54.9659m 
  207.20000m   54.9580m 
  207.30000m   54.9501m 
  207.40000m   54.9422m 
  207.50000m   54.9343m 
  207.60000m   54.9264m 
  207.70000m   54.9185m 
  207.80000m   54.9106m 
  207.90000m   54.9027m 
  208.00000m   54.8948m 
  208.10000m   54.8869m 
  208.20000m   54.8790m 
  208.30000m   54.8711m 
  208.40000m   54.8632m 
  208.50000m   54.8552m 
  208.60000m   54.8473m 
  208.70000m   54.8394m 
  208.80000m   54.8315m 
  208.90000m   54.8236m 
  209.00000m   54.8157m 
  209.10000m   54.8078m 
  209.20000m   54.7999m 
  209.30000m   54.7920m 
  209.40000m   54.7841m 
  209.50000m   54.7762m 
  209.60000m   54.7683m 
  209.70000m   54.7604m 
  209.80000m   54.7525m 
  209.90000m   54.7447m 
  210.00000m   54.7368m 
  210.10000m   54.7289m 
  210.20000m   54.7210m 
  210.30000m   54.7131m 
  210.40000m   54.7052m 
  210.50000m   54.6973m 
  210.60000m   54.6894m 
  210.70000m   54.6815m 
  210.80000m   54.6736m 
  210.90000m   54.6657m 
  211.00000m   54.6578m 
  211.10000m   54.6499m 
  211.20000m   54.6420m 
  211.30000m   54.6342m 
  211.40000m   54.6263m 
  211.50000m   54.6184m 
  211.60000m   54.6105m 
  211.70000m   54.6026m 
  211.80000m   54.5947m 
  211.90000m   54.5868m 
  212.00000m   54.5789m 
  212.10000m   54.5711m 
  212.20000m   54.5632m 
  212.30000m   54.5553m 
  212.40000m   54.5474m 
  212.50000m   54.5395m 
  212.60000m   54.5316m 
  212.70000m   54.5238m 
  212.80000m   54.5159m 
  212.90000m   54.5080m 
  213.00000m   54.5001m 
  213.10000m   54.4922m 
  213.20000m   54.4844m 
  213.30000m   54.4765m 
  213.40000m   54.4686m 
  213.50000m   54.4607m 
  213.60000m   54.4528m 
  213.70000m   54.4450m 
  213.80000m   54.4371m 
  213.90000m   54.4292m 
  214.00000m   54.4213m 
  214.10000m   54.4135m 
  214.20000m   54.4056m 
  214.30000m   54.3977m 
  214.40000m   54.3898m 
  214.50000m   54.3820m 
  214.60000m   54.3741m 
  214.70000m   54.3662m 
  214.80000m   54.3584m 
  214.90000m   54.3505m 
  215.00000m   54.3426m 
  215.10000m   54.3347m 
  215.20000m   54.3269m 
  215.30000m   54.3190m 
  215.40000m   54.3111m 
  215.50000m   54.3033m 
  215.60000m   54.2954m 
  215.70000m   54.2875m 
  215.80000m   54.2797m 
  215.90000m   54.2718m 
  216.00000m   54.2639m 
  216.10000m   54.2561m 
  216.20000m   54.2482m 
  216.30000m   54.2403m 
  216.40000m   54.2325m 
  216.50000m   54.2246m 
  216.60000m   54.2168m 
  216.70000m   54.2089m 
  216.80000m   54.2010m 
  216.90000m   54.1932m 
  217.00000m   54.1853m 
  217.10000m   54.1775m 
  217.20000m   54.1696m 
  217.30000m   54.1617m 
  217.40000m   54.1539m 
  217.50000m   54.1460m 
  217.60000m   54.1382m 
  217.70000m   54.1303m 
  217.80000m   54.1224m 
  217.90000m   54.1146m 
  218.00000m   54.1067m 
  218.10000m   54.0989m 
  218.20000m   54.0910m 
  218.30000m   54.0832m 
  218.40000m   54.0753m 
  218.50000m   54.0675m 
  218.60000m   54.0596m 
  218.70000m   54.0518m 
  218.80000m   54.0439m 
  218.90000m   54.0361m 
  219.00000m   54.0282m 
  219.10000m   54.0204m 
  219.20000m   54.0125m 
  219.30000m   54.0047m 
  219.40000m   53.9968m 
  219.50000m   53.9890m 
  219.60000m   53.9811m 
  219.70000m   53.9733m 
  219.80000m   53.9654m 
  219.90000m   53.9576m 
  220.00000m   53.9497m 
  220.10000m   53.9419m 
  220.20000m   53.9341m 
  220.30000m   53.9262m 
  220.40000m   53.9184m 
  220.50000m   53.9105m 
  220.60000m   53.9027m 
  220.70000m   53.8948m 
  220.80000m   53.8870m 
  220.90000m   53.8792m 
  221.00000m   53.8713m 
  221.10000m   53.8635m 
  221.20000m   53.8556m 
  221.30000m   53.8478m 
  221.40000m   53.8400m 
  221.50000m   53.8321m 
  221.60000m   53.8243m 
  221.70000m   53.8165m 
  221.80000m   53.8086m 
  221.90000m   53.8008m 
  222.00000m   53.7930m 
  222.10000m   53.7851m 
  222.20000m   53.7773m 
  222.30000m   53.7695m 
  222.40000m   53.7616m 
  222.50000m   53.7538m 
  222.60000m   53.7460m 
  222.70000m   53.7381m 
  222.80000m   53.7303m 
  222.90000m   53.7225m 
  223.00000m   53.7146m 
  223.10000m   53.7068m 
  223.20000m   53.6990m 
  223.30000m   53.6911m 
  223.40000m   53.6833m 
  223.50000m   53.6755m 
  223.60000m   53.6677m 
  223.70000m   53.6598m 
  223.80000m   53.6520m 
  223.90000m   53.6442m 
  224.00000m   53.6364m 
  224.10000m   53.6285m 
  224.20000m   53.6207m 
  224.30000m   53.6129m 
  224.40000m   53.6051m 
  224.50000m   53.5973m 
  224.60000m   53.5894m 
  224.70000m   53.5816m 
  224.80000m   53.5738m 
  224.90000m   53.5660m 
  225.00000m   53.5581m 
  225.10000m   53.5503m 
  225.20000m   53.5425m 
  225.30000m   53.5347m 
  225.40000m   53.5269m 
  225.50000m   53.5191m 
  225.60000m   53.5112m 
  225.70000m   53.5034m 
  225.80000m   53.4956m 
  225.90000m   53.4878m 
  226.00000m   53.4800m 
  226.10000m   53.4722m 
  226.20000m   53.4644m 
  226.30000m   53.4565m 
  226.40000m   53.4487m 
  226.50000m   53.4409m 
  226.60000m   53.4331m 
  226.70000m   53.4253m 
  226.80000m   53.4175m 
  226.90000m   53.4097m 
  227.00000m   53.4019m 
  227.10000m   53.3941m 
  227.20000m   53.3862m 
  227.30000m   53.3784m 
  227.40000m   53.3706m 
  227.50000m   53.3628m 
  227.60000m   53.3550m 
  227.70000m   53.3472m 
  227.80000m   53.3394m 
  227.90000m   53.3316m 
  228.00000m   53.3238m 
  228.10000m   53.3160m 
  228.20000m   53.3082m 
  228.30000m   53.3004m 
  228.40000m   53.2926m 
  228.50000m   53.2848m 
  228.60000m   53.2770m 
  228.70000m   53.2692m 
  228.80000m   53.2614m 
  228.90000m   53.2536m 
  229.00000m   53.2458m 
  229.10000m   53.2380m 
  229.20000m   53.2302m 
  229.30000m   53.2224m 
  229.40000m   53.2146m 
  229.50000m   53.2068m 
  229.60000m   53.1990m 
  229.70000m   53.1912m 
  229.80000m   53.1834m 
  229.90000m   53.1756m 
  230.00000m   53.1678m 
  230.10000m   53.1600m 
  230.20000m   53.1522m 
  230.30000m   53.1444m 
  230.40000m   53.1366m 
  230.50000m   53.1288m 
  230.60000m   53.1211m 
  230.70000m   53.1133m 
  230.80000m   53.1055m 
  230.90000m   53.0977m 
  231.00000m   53.0899m 
  231.10000m   53.0821m 
  231.20000m   53.0743m 
  231.30000m   53.0665m 
  231.40000m   53.0587m 
  231.50000m   53.0510m 
  231.60000m   53.0432m 
  231.70000m   53.0354m 
  231.80000m   53.0276m 
  231.90000m   53.0198m 
  232.00000m   53.0120m 
  232.10000m   53.0042m 
  232.20000m   52.9965m 
  232.30000m   52.9887m 
  232.40000m   52.9809m 
  232.50000m   52.9731m 
  232.60000m   52.9653m 
  232.70000m   52.9575m 
  232.80000m   52.9498m 
  232.90000m   52.9420m 
  233.00000m   52.9342m 
  233.10000m   52.9264m 
  233.20000m   52.9187m 
  233.30000m   52.9109m 
  233.40000m   52.9031m 
  233.50000m   52.8953m 
  233.60000m   52.8875m 
  233.70000m   52.8798m 
  233.80000m   52.8720m 
  233.90000m   52.8642m 
  234.00000m   52.8564m 
  234.10000m   52.8487m 
  234.20000m   52.8409m 
  234.30000m   52.8331m 
  234.40000m   52.8253m 
  234.50000m   52.8176m 
  234.60000m   52.8098m 
  234.70000m   52.8020m 
  234.80000m   52.7943m 
  234.90000m   52.7865m 
  235.00000m   52.7787m 
  235.10000m   52.7710m 
  235.20000m   52.7632m 
  235.30000m   52.7554m 
  235.40000m   52.7476m 
  235.50000m   52.7399m 
  235.60000m   52.7321m 
  235.70000m   52.7243m 
  235.80000m   52.7166m 
  235.90000m   52.7088m 
  236.00000m   52.7011m 
  236.10000m   52.6933m 
  236.20000m   52.6855m 
  236.30000m   52.6778m 
  236.40000m   52.6700m 
  236.50000m   52.6622m 
  236.60000m   52.6545m 
  236.70000m   52.6467m 
  236.80000m   52.6390m 
  236.90000m   52.6312m 
  237.00000m   52.6234m 
  237.10000m   52.6157m 
  237.20000m   52.6079m 
  237.30000m   52.6002m 
  237.40000m   52.5924m 
  237.50000m   52.5846m 
  237.60000m   52.5769m 
  237.70000m   52.5691m 
  237.80000m   52.5614m 
  237.90000m   52.5536m 
  238.00000m   52.5459m 
  238.10000m   52.5381m 
  238.20000m   52.5304m 
  238.30000m   52.5226m 
  238.40000m   52.5149m 
  238.50000m   52.5071m 
  238.60000m   52.4993m 
  238.70000m   52.4916m 
  238.80000m   52.4838m 
  238.90000m   52.4761m 
  239.00000m   52.4683m 
  239.10000m   52.4606m 
  239.20000m   52.4528m 
  239.30000m   52.4451m 
  239.40000m   52.4374m 
  239.50000m   52.4296m 
  239.60000m   52.4219m 
  239.70000m   52.4141m 
  239.80000m   52.4064m 
  239.90000m   52.3986m 
  240.00000m   52.3909m 
  240.10000m   52.3831m 
  240.20000m   52.3754m 
  240.30000m   52.3676m 
  240.40000m   52.3599m 
  240.50000m   52.3522m 
  240.60000m   52.3444m 
  240.70000m   52.3367m 
  240.80000m   52.3289m 
  240.90000m   52.3212m 
  241.00000m   52.3135m 
  241.10000m   52.3057m 
  241.20000m   52.2980m 
  241.30000m   52.2902m 
  241.40000m   52.2825m 
  241.50000m   52.2748m 
  241.60000m   52.2670m 
  241.70000m   52.2593m 
  241.80000m   52.2515m 
  241.90000m   52.2438m 
  242.00000m   52.2361m 
  242.10000m   52.2283m 
  242.20000m   52.2206m 
  242.30000m   52.2129m 
  242.40000m   52.2051m 
  242.50000m   52.1974m 
  242.60000m   52.1897m 
  242.70000m   52.1819m 
  242.80000m   52.1742m 
  242.90000m   52.1665m 
  243.00000m   52.1588m 
  243.10000m   52.1510m 
  243.20000m   52.1433m 
  243.30000m   52.1356m 
  243.40000m   52.1278m 
  243.50000m   52.1201m 
  243.60000m   52.1124m 
  243.70000m   52.1047m 
  243.80000m   52.0969m 
  243.90000m   52.0892m 
  244.00000m   52.0815m 
  244.10000m   52.0738m 
  244.20000m   52.0660m 
  244.30000m   52.0583m 
  244.40000m   52.0506m 
  244.50000m   52.0429m 
  244.60000m   52.0351m 
  244.70000m   52.0274m 
  244.80000m   52.0197m 
  244.90000m   52.0120m 
  245.00000m   52.0043m 
  245.10000m   51.9965m 
  245.20000m   51.9888m 
  245.30000m   51.9811m 
  245.40000m   51.9734m 
  245.50000m   51.9657m 
  245.60000m   51.9579m 
  245.70000m   51.9502m 
  245.80000m   51.9425m 
  245.90000m   51.9348m 
  246.00000m   51.9271m 
  246.10000m   51.9194m 
  246.20000m   51.9116m 
  246.30000m   51.9039m 
  246.40000m   51.8962m 
  246.50000m   51.8885m 
  246.60000m   51.8808m 
  246.70000m   51.8731m 
  246.80000m   51.8654m 
  246.90000m   51.8577m 
  247.00000m   51.8499m 
  247.10000m   51.8422m 
  247.20000m   51.8345m 
  247.30000m   51.8268m 
  247.40000m   51.8191m 
  247.50000m   51.8114m 
  247.60000m   51.8037m 
  247.70000m   51.7960m 
  247.80000m   51.7883m 
  247.90000m   51.7806m 
  248.00000m   51.7729m 
  248.10000m   51.7652m 
  248.20000m   51.7575m 
  248.30000m   51.7497m 
  248.40000m   51.7420m 
  248.50000m   51.7343m 
  248.60000m   51.7266m 
  248.70000m   51.7189m 
  248.80000m   51.7112m 
  248.90000m   51.7035m 
  249.00000m   51.6958m 
  249.10000m   51.6881m 
  249.20000m   51.6804m 
  249.30000m   51.6727m 
  249.40000m   51.6650m 
  249.50000m   51.6573m 
  249.60000m   51.6496m 
  249.70000m   51.6419m 
  249.80000m   51.6342m 
  249.90000m   51.6265m 
  250.00000m   51.6188m 
  250.10000m   51.6111m 
  250.20000m   51.6035m 
  250.30000m   51.5958m 
  250.40000m   51.5881m 
  250.50000m   51.5804m 
  250.60000m   51.5727m 
  250.70000m   51.5650m 
  250.80000m   51.5573m 
  250.90000m   51.5496m 
  251.00000m   51.5419m 
  251.10000m   51.5342m 
  251.20000m   51.5265m 
  251.30000m   51.5188m 
  251.40000m   51.5111m 
  251.50000m   51.5035m 
  251.60000m   51.4958m 
  251.70000m   51.4881m 
  251.80000m   51.4804m 
  251.90000m   51.4727m 
  252.00000m   51.4650m 
  252.10000m   51.4573m 
  252.20000m   51.4496m 
  252.30000m   51.4420m 
  252.40000m   51.4343m 
  252.50000m   51.4266m 
  252.60000m   51.4189m 
  252.70000m   51.4112m 
  252.80000m   51.4035m 
  252.90000m   51.3959m 
  253.00000m   51.3882m 
  253.10000m   51.3805m 
  253.20000m   51.3728m 
  253.30000m   51.3651m 
  253.40000m   51.3574m 
  253.50000m   51.3498m 
  253.60000m   51.3421m 
  253.70000m   51.3344m 
  253.80000m   51.3267m 
  253.90000m   51.3191m 
  254.00000m   51.3114m 
  254.10000m   51.3037m 
  254.20000m   51.2960m 
  254.30000m   51.2883m 
  254.40000m   51.2807m 
  254.50000m   51.2730m 
  254.60000m   51.2653m 
  254.70000m   51.2576m 
  254.80000m   51.2500m 
  254.90000m   51.2423m 
  255.00000m   51.2346m 
  255.10000m   51.2270m 
  255.20000m   51.2193m 
  255.30000m   51.2116m 
  255.40000m   51.2039m 
  255.50000m   51.1963m 
  255.60000m   51.1886m 
  255.70000m   51.1809m 
  255.80000m   51.1733m 
  255.90000m   51.1656m 
  256.00000m   51.1579m 
  256.10000m   51.1503m 
  256.20000m   51.1426m 
  256.30000m   51.1349m 
  256.40000m   51.1273m 
  256.50000m   51.1196m 
  256.60000m   51.1119m 
  256.70000m   51.1043m 
  256.80000m   51.0966m 
  256.90000m   51.0889m 
  257.00000m   51.0813m 
  257.10000m   51.0736m 
  257.20000m   51.0660m 
  257.30000m   51.0583m 
  257.40000m   51.0506m 
  257.50000m   51.0430m 
  257.60000m   51.0353m 
  257.70000m   51.0276m 
  257.80000m   51.0200m 
  257.90000m   51.0123m 
  258.00000m   51.0047m 
  258.10000m   50.9970m 
  258.20000m   50.9894m 
  258.30000m   50.9817m 
  258.40000m   50.9740m 
  258.50000m   50.9664m 
  258.60000m   50.9587m 
  258.70000m   50.9511m 
  258.80000m   50.9434m 
  258.90000m   50.9358m 
  259.00000m   50.9281m 
  259.10000m   50.9205m 
  259.20000m   50.9128m 
  259.30000m   50.9052m 
  259.40000m   50.8975m 
  259.50000m   50.8898m 
  259.60000m   50.8822m 
  259.70000m   50.8745m 
  259.80000m   50.8669m 
  259.90000m   50.8592m 
  260.00000m   50.8516m 
  260.10000m   50.8440m 
  260.20000m   50.8363m 
  260.30000m   50.8287m 
  260.40000m   50.8210m 
  260.50000m   50.8134m 
  260.60000m   50.8057m 
  260.70000m   50.7981m 
  260.80000m   50.7904m 
  260.90000m   50.7828m 
  261.00000m   50.7751m 
  261.10000m   50.7675m 
  261.20000m   50.7598m 
  261.30000m   50.7522m 
  261.40000m   50.7446m 
  261.50000m   50.7369m 
  261.60000m   50.7293m 
  261.70000m   50.7216m 
  261.80000m   50.7140m 
  261.90000m   50.7064m 
  262.00000m   50.6987m 
  262.10000m   50.6911m 
  262.20000m   50.6834m 
  262.30000m   50.6758m 
  262.40000m   50.6682m 
  262.50000m   50.6605m 
  262.60000m   50.6529m 
  262.70000m   50.6452m 
  262.80000m   50.6376m 
  262.90000m   50.6300m 
  263.00000m   50.6223m 
  263.10000m   50.6147m 
  263.20000m   50.6071m 
  263.30000m   50.5994m 
  263.40000m   50.5918m 
  263.50000m   50.5842m 
  263.60000m   50.5765m 
  263.70000m   50.5689m 
  263.80000m   50.5613m 
  263.90000m   50.5536m 
  264.00000m   50.5460m 
  264.10000m   50.5384m 
  264.20000m   50.5308m 
  264.30000m   50.5231m 
  264.40000m   50.5155m 
  264.50000m   50.5079m 
  264.60000m   50.5002m 
  264.70000m   50.4926m 
  264.80000m   50.4850m 
  264.90000m   50.4774m 
  265.00000m   50.4697m 
  265.10000m   50.4621m 
  265.20000m   50.4545m 
  265.30000m   50.4469m 
  265.40000m   50.4392m 
  265.50000m   50.4316m 
  265.60000m   50.4240m 
  265.70000m   50.4164m 
  265.80000m   50.4087m 
  265.90000m   50.4011m 
  266.00000m   50.3935m 
  266.10000m   50.3859m 
  266.20000m   50.3783m 
  266.30000m   50.3706m 
  266.40000m   50.3630m 
  266.50000m   50.3554m 
  266.60000m   50.3478m 
  266.70000m   50.3402m 
  266.80000m   50.3325m 
  266.90000m   50.3249m 
  267.00000m   50.3173m 
  267.10000m   50.3097m 
  267.20000m   50.3021m 
  267.30000m   50.2945m 
  267.40000m   50.2868m 
  267.50000m   50.2792m 
  267.60000m   50.2716m 
  267.70000m   50.2640m 
  267.80000m   50.2564m 
  267.90000m   50.2488m 
  268.00000m   50.2412m 
  268.10000m   50.2335m 
  268.20000m   50.2259m 
  268.30000m   50.2183m 
  268.40000m   50.2107m 
  268.50000m   50.2031m 
  268.60000m   50.1955m 
  268.70000m   50.1879m 
  268.80000m   50.1803m 
  268.90000m   50.1727m 
  269.00000m   50.1651m 
  269.10000m   50.1574m 
  269.20000m   50.1498m 
  269.30000m   50.1422m 
  269.40000m   50.1346m 
  269.50000m   50.1270m 
  269.60000m   50.1194m 
  269.70000m   50.1118m 
  269.80000m   50.1042m 
  269.90000m   50.0966m 
  270.00000m   50.0890m 
  270.10000m   50.0814m 
  270.20000m   50.0738m 
  270.30000m   50.0662m 
  270.40000m   50.0586m 
  270.50000m   50.0510m 
  270.60000m   50.0434m 
  270.70000m   50.0358m 
  270.80000m   50.0282m 
  270.90000m   50.0206m 
  271.00000m   50.0130m 
  271.10000m   50.0054m 
  271.20000m   49.9978m 
  271.30000m   49.9902m 
  271.40000m   49.9826m 
  271.50000m   49.9750m 
  271.60000m   49.9674m 
  271.70000m   49.9598m 
  271.80000m   49.9522m 
  271.90000m   49.9446m 
  272.00000m   49.9370m 
  272.10000m   49.9294m 
  272.20000m   49.9218m 
  272.30000m   49.9142m 
  272.40000m   49.9066m 
  272.50000m   49.8991m 
  272.60000m   49.8915m 
  272.70000m   49.8839m 
  272.80000m   49.8763m 
  272.90000m   49.8687m 
  273.00000m   49.8611m 
  273.10000m   49.8535m 
  273.20000m   49.8459m 
  273.30000m   49.8383m 
  273.40000m   49.8307m 
  273.50000m   49.8232m 
  273.60000m   49.8156m 
  273.70000m   49.8080m 
  273.80000m   49.8004m 
  273.90000m   49.7928m 
  274.00000m   49.7852m 
  274.10000m   49.7776m 
  274.20000m   49.7701m 
  274.30000m   49.7625m 
  274.40000m   49.7549m 
  274.50000m   49.7473m 
  274.60000m   49.7397m 
  274.70000m   49.7321m 
  274.80000m   49.7246m 
  274.90000m   49.7170m 
  275.00000m   49.7094m 
  275.10000m   49.7018m 
  275.20000m   49.6942m 
  275.30000m   49.6866m 
  275.40000m   49.6791m 
  275.50000m   49.6715m 
  275.60000m   49.6639m 
  275.70000m   49.6563m 
  275.80000m   49.6488m 
  275.90000m   49.6412m 
  276.00000m   49.6336m 
  276.10000m   49.6260m 
  276.20000m   49.6184m 
  276.30000m   49.6109m 
  276.40000m   49.6033m 
  276.50000m   49.5957m 
  276.60000m   49.5881m 
  276.70000m   49.5806m 
  276.80000m   49.5730m 
  276.90000m   49.5654m 
  277.00000m   49.5578m 
  277.10000m   49.5503m 
  277.20000m   49.5427m 
  277.30000m   49.5351m 
  277.40000m   49.5276m 
  277.50000m   49.5200m 
  277.60000m   49.5124m 
  277.70000m   49.5049m 
  277.80000m   49.4973m 
  277.90000m   49.4897m 
  278.00000m   49.4821m 
  278.10000m   49.4746m 
  278.20000m   49.4670m 
  278.30000m   49.4594m 
  278.40000m   49.4519m 
  278.50000m   49.4443m 
  278.60000m   49.4367m 
  278.70000m   49.4292m 
  278.80000m   49.4216m 
  278.90000m   49.4140m 
  279.00000m   49.4065m 
  279.10000m   49.3989m 
  279.20000m   49.3914m 
  279.30000m   49.3838m 
  279.40000m   49.3762m 
  279.50000m   49.3687m 
  279.60000m   49.3611m 
  279.70000m   49.3535m 
  279.80000m   49.3460m 
  279.90000m   49.3384m 
  280.00000m   49.3309m 
  280.10000m   49.3233m 
  280.20000m   49.3157m 
  280.30000m   49.3082m 
  280.40000m   49.3006m 
  280.50000m   49.2931m 
  280.60000m   49.2855m 
  280.70000m   49.2780m 
  280.80000m   49.2704m 
  280.90000m   49.2628m 
  281.00000m   49.2553m 
  281.10000m   49.2477m 
  281.20000m   49.2402m 
  281.30000m   49.2326m 
  281.40000m   49.2251m 
  281.50000m   49.2175m 
  281.60000m   49.2100m 
  281.70000m   49.2024m 
  281.80000m   49.1949m 
  281.90000m   49.1873m 
  282.00000m   49.1798m 
  282.10000m   49.1722m 
  282.20000m   49.1647m 
  282.30000m   49.1571m 
  282.40000m   49.1496m 
  282.50000m   49.1420m 
  282.60000m   49.1345m 
  282.70000m   49.1269m 
  282.80000m   49.1194m 
  282.90000m   49.1118m 
  283.00000m   49.1043m 
  283.10000m   49.0967m 
  283.20000m   49.0892m 
  283.30000m   49.0816m 
  283.40000m   49.0741m 
  283.50000m   49.0665m 
  283.60000m   49.0590m 
  283.70000m   49.0514m 
  283.80000m   49.0439m 
  283.90000m   49.0364m 
  284.00000m   49.0288m 
  284.10000m   49.0213m 
  284.20000m   49.0137m 
  284.30000m   49.0062m 
  284.40000m   48.9986m 
  284.50000m   48.9911m 
  284.60000m   48.9836m 
  284.70000m   48.9760m 
  284.80000m   48.9685m 
  284.90000m   48.9609m 
  285.00000m   48.9534m 
  285.10000m   48.9459m 
  285.20000m   48.9383m 
  285.30000m   48.9308m 
  285.40000m   48.9233m 
  285.50000m   48.9157m 
  285.60000m   48.9082m 
  285.70000m   48.9006m 
  285.80000m   48.8931m 
  285.90000m   48.8856m 
  286.00000m   48.8780m 
  286.10000m   48.8705m 
  286.20000m   48.8630m 
  286.30000m   48.8554m 
  286.40000m   48.8479m 
  286.50000m   48.8404m 
  286.60000m   48.8328m 
  286.70000m   48.8253m 
  286.80000m   48.8178m 
  286.90000m   48.8102m 
  287.00000m   48.8027m 
  287.10000m   48.7952m 
  287.20000m   48.7876m 
  287.30000m   48.7801m 
  287.40000m   48.7726m 
  287.50000m   48.7651m 
  287.60000m   48.7575m 
  287.70000m   48.7500m 
  287.80000m   48.7425m 
  287.90000m   48.7349m 
  288.00000m   48.7274m 
  288.10000m   48.7199m 
  288.20000m   48.7124m 
  288.30000m   48.7048m 
  288.40000m   48.6973m 
  288.50000m   48.6898m 
  288.60000m   48.6823m 
  288.70000m   48.6747m 
  288.80000m   48.6672m 
  288.90000m   48.6597m 
  289.00000m   48.6522m 
  289.10000m   48.6447m 
  289.20000m   48.6371m 
  289.30000m   48.6296m 
  289.40000m   48.6221m 
  289.50000m   48.6146m 
  289.60000m   48.6070m 
  289.70000m   48.5995m 
  289.80000m   48.5920m 
  289.90000m   48.5845m 
  290.00000m   48.5770m 
  290.10000m   48.5695m 
  290.20000m   48.5619m 
  290.30000m   48.5544m 
  290.40000m   48.5469m 
  290.50000m   48.5394m 
  290.60000m   48.5319m 
  290.70000m   48.5243m 
  290.80000m   48.5168m 
  290.90000m   48.5093m 
  291.00000m   48.5018m 
  291.10000m   48.4943m 
  291.20000m   48.4868m 
  291.30000m   48.4793m 
  291.40000m   48.4717m 
  291.50000m   48.4642m 
  291.60000m   48.4567m 
  291.70000m   48.4492m 
  291.80000m   48.4417m 
  291.90000m   48.4342m 
  292.00000m   48.4267m 
  292.10000m   48.4192m 
  292.20000m   48.4117m 
  292.30000m   48.4041m 
  292.40000m   48.3966m 
  292.50000m   48.3891m 
  292.60000m   48.3816m 
  292.70000m   48.3741m 
  292.80000m   48.3666m 
  292.90000m   48.3591m 
  293.00000m   48.3516m 
  293.10000m   48.3441m 
  293.20000m   48.3366m 
  293.30000m   48.3291m 
  293.40000m   48.3216m 
  293.50000m   48.3141m 
  293.60000m   48.3066m 
  293.70000m   48.2991m 
  293.80000m   48.2915m 
  293.90000m   48.2840m 
  294.00000m   48.2765m 
  294.10000m   48.2690m 
  294.20000m   48.2615m 
  294.30000m   48.2540m 
  294.40000m   48.2465m 
  294.50000m   48.2390m 
  294.60000m   48.2315m 
  294.70000m   48.2240m 
  294.80000m   48.2165m 
  294.90000m   48.2090m 
  295.00000m   48.2015m 
  295.10000m   48.1940m 
  295.20000m   48.1865m 
  295.30000m   48.1790m 
  295.40000m   48.1715m 
  295.50000m   48.1640m 
  295.60000m   48.1565m 
  295.70000m   48.1490m 
  295.80000m   48.1415m 
  295.90000m   48.1341m 
  296.00000m   48.1266m 
  296.10000m   48.1191m 
  296.20000m   48.1116m 
  296.30000m   48.1041m 
  296.40000m   48.0966m 
  296.50000m   48.0891m 
  296.60000m   48.0816m 
  296.70000m   48.0741m 
  296.80000m   48.0666m 
  296.90000m   48.0591m 
  297.00000m   48.0516m 
  297.10000m   48.0441m 
  297.20000m   48.0366m 
  297.30000m   48.0291m 
  297.40000m   48.0217m 
  297.50000m   48.0142m 
  297.60000m   48.0067m 
  297.70000m   47.9992m 
  297.80000m   47.9917m 
  297.90000m   47.9842m 
  298.00000m   47.9767m 
  298.10000m   47.9692m 
  298.20000m   47.9617m 
  298.30000m   47.9543m 
  298.40000m   47.9468m 
  298.50000m   47.9393m 
  298.60000m   47.9318m 
  298.70000m   47.9243m 
  298.80000m   47.9168m 
  298.90000m   47.9093m 
  299.00000m   47.9019m 
  299.10000m   47.8944m 
  299.20000m   47.8869m 
  299.30000m   47.8794m 
  299.40000m   47.8719m 
  299.50000m   47.8644m 
  299.60000m   47.8570m 
  299.70000m   47.8495m 
  299.80000m   47.8420m 
  299.90000m   47.8345m 
  300.00000m   47.8270m 
  300.10000m   47.8196m 
  300.20000m   47.8121m 
  300.30000m   47.8046m 
  300.40000m   47.7971m 
  300.50000m   47.7896m 
  300.60000m   47.7822m 
  300.70000m   47.7747m 
  300.80000m   47.7672m 
  300.90000m   47.7597m 
  301.00000m   47.7523m 
  301.10000m   47.7448m 
  301.20000m   47.7373m 
  301.30000m   47.7298m 
  301.40000m   47.7223m 
  301.50000m   47.7149m 
  301.60000m   47.7074m 
  301.70000m   47.6999m 
  301.80000m   47.6925m 
  301.90000m   47.6850m 
  302.00000m   47.6775m 
  302.10000m   47.6700m 
  302.20000m   47.6626m 
  302.30000m   47.6551m 
  302.40000m   47.6476m 
  302.50000m   47.6401m 
  302.60000m   47.6327m 
  302.70000m   47.6252m 
  302.80000m   47.6177m 
  302.90000m   47.6103m 
  303.00000m   47.6028m 
  303.10000m   47.5953m 
  303.20000m   47.5878m 
  303.30000m   47.5804m 
  303.40000m   47.5729m 
  303.50000m   47.5654m 
  303.60000m   47.5580m 
  303.70000m   47.5505m 
  303.80000m   47.5430m 
  303.90000m   47.5356m 
  304.00000m   47.5281m 
  304.10000m   47.5206m 
  304.20000m   47.5132m 
  304.30000m   47.5057m 
  304.40000m   47.4982m 
  304.50000m   47.4908m 
  304.60000m   47.4833m 
  304.70000m   47.4759m 
  304.80000m   47.4684m 
  304.90000m   47.4609m 
  305.00000m   47.4535m 
  305.10000m   47.4460m 
  305.20000m   47.4385m 
  305.30000m   47.4311m 
  305.40000m   47.4236m 
  305.50000m   47.4162m 
  305.60000m   47.4087m 
  305.70000m   47.4012m 
  305.80000m   47.3938m 
  305.90000m   47.3863m 
  306.00000m   47.3789m 
  306.10000m   47.3714m 
  306.20000m   47.3639m 
  306.30000m   47.3565m 
  306.40000m   47.3490m 
  306.50000m   47.3416m 
  306.60000m   47.3341m 
  306.70000m   47.3266m 
  306.80000m   47.3192m 
  306.90000m   47.3117m 
  307.00000m   47.3043m 
  307.10000m   47.2968m 
  307.20000m   47.2894m 
  307.30000m   47.2819m 
  307.40000m   47.2745m 
  307.50000m   47.2670m 
  307.60000m   47.2595m 
  307.70000m   47.2521m 
  307.80000m   47.2446m 
  307.90000m   47.2372m 
  308.00000m   47.2297m 
  308.10000m   47.2223m 
  308.20000m   47.2148m 
  308.30000m   47.2074m 
  308.40000m   47.1999m 
  308.50000m   47.1925m 
  308.60000m   47.1850m 
  308.70000m   47.1776m 
  308.80000m   47.1701m 
  308.90000m   47.1627m 
  309.00000m   47.1552m 
  309.10000m   47.1478m 
  309.20000m   47.1403m 
  309.30000m   47.1329m 
  309.40000m   47.1254m 
  309.50000m   47.1180m 
  309.60000m   47.1105m 
  309.70000m   47.1031m 
  309.80000m   47.0956m 
  309.90000m   47.0882m 
  310.00000m   47.0807m 
  310.10000m   47.0733m 
  310.20000m   47.0659m 
  310.30000m   47.0584m 
  310.40000m   47.0510m 
  310.50000m   47.0435m 
  310.60000m   47.0361m 
  310.70000m   47.0286m 
  310.80000m   47.0212m 
[...]
    1.72770    17.7326n 
    1.72780    17.6896n 
    1.72790    17.6468n 
    1.72800    17.6041n 
    1.72810    17.5614n 
    1.72820    17.5189n 
    1.72830    17.4765n 
    1.72840    17.4342n 
    1.72850    17.3921n 
    1.72860    17.3500n 
    1.72870    17.3080n 
    1.72880    17.2662n 
    1.72890    17.2244n 
    1.72900    17.1828n 
    1.72910    17.1413n 
    1.72920    17.0998n 
    1.72930    17.0585n 
    1.72940    17.0173n 
    1.72950    16.9762n 
    1.72960    16.9352n 
    1.72970    16.8943n 
    1.72980    16.8536n 
    1.72990    16.8129n 
    1.73000    16.7723n 
    1.73010    16.7318n 
    1.73020    16.6915n 
    1.73030    16.6512n 
    1.73040    16.6111n 
    1.73050    16.5710n 
    1.73060    16.5311n 
    1.73070    16.4912n 
    1.73080    16.4515n 
    1.73090    16.4119n 
    1.73100    16.3723n 
    1.73110    16.3329n 
    1.73120    16.2936n 
    1.73130    16.2544n 
    1.73140    16.2152n 
    1.73150    16.1762n 
    1.73160    16.1373n 
    1.73170    16.0985n 
    1.73180    16.0598n 
    1.73190    16.0211n 
    1.73200    15.9826n 
    1.73210    15.9442n 
    1.73220    15.9059n 
    1.73230    15.8677n 
    1.73240    15.8296n 
    1.73250    15.7915n 
    1.73260    15.7536n 
    1.73270    15.7158n 
    1.73280    15.6781n 
    1.73290    15.6404n 
    1.73300    15.6029n 
    1.73310    15.5655n 
    1.73320    15.5281n 
    1.73330    15.4909n 
    1.73340    15.4538n 
    1.73350    15.4167n 
    1.73360    15.3798n 
    1.73370    15.3429n 
    1.73380    15.3062n 
    1.73390    15.2695n 
    1.73400    15.2329n 
    1.73410    15.1965n 
    1.73420    15.1601n 
    1.73430    15.1238n 
    1.73440    15.0876n 
    1.73450    15.0515n 
    1.73460    15.0155n 
    1.73470    14.9796n 
    1.73480    14.9438n 
    1.73490    14.9081n 
    1.73500    14.8724n 
    1.73510    14.8369n 
    1.73520    14.8014n 
    1.73530    14.7661n 
    1.73540    14.7308n 
    1.73550    14.6957n 
    1.73560    14.6606n 
    1.73570    14.6256n 
    1.73580    14.5907n 
    1.73590    14.5559n 
    1.73600    14.5212n 
    1.73610    14.4865n 
    1.73620    14.4520n 
    1.73630    14.4176n 
    1.73640    14.3832n 
    1.73650    14.3489n 
    1.73660    14.3148n 
    1.73670    14.2807n 
    1.73680    14.2467n 
    1.73690    14.2128n 
    1.73700    14.1789n 
    1.73710    14.1452n 
    1.73720    14.1115n 
    1.73730    14.0780n 
    1.73740    14.0445n 
    1.73750    14.0111n 
    1.73760    13.9778n 
    1.73770    13.9446n 
    1.73780    13.9115n 
    1.73790    13.8784n 
    1.73800    13.8455n 
    1.73810    13.8126n 
    1.73820    13.7798n 
    1.73830    13.7471n 
    1.73840    13.7145n 
    1.73850    13.6819n 
    1.73860    13.6495n 
    1.73870    13.6171n 
    1.73880    13.5849n 
    1.73890    13.5527n 
    1.73900    13.5205n 
    1.73910    13.4885n 
    1.73920    13.4566n 
    1.73930    13.4247n 
    1.73940    13.3929n 
    1.73950    13.3612n 
    1.73960    13.3296n 
    1.73970    13.2981n 
    1.73980    13.2666n 
    1.73990    13.2353n 
    1.74000    13.2040n 
    1.74010    13.1728n 
    1.74020    13.1416n 
    1.74030    13.1106n 
    1.74040    13.0796n 
    1.74050    13.0487n 
    1.74060    13.0179n 
    1.74070    12.9872n 
    1.74080    12.9566n 
    1.74090    12.9260n 
    1.74100    12.8955n 
    1.74110    12.8651n 
    1.74120    12.8348n 
    1.74130    12.8045n 
    1.74140    12.7744n 
    1.74150    12.7443n 
    1.74160    12.7142n 
    1.74170    12.6843n 
    1.74180    12.6545n 
    1.74190    12.6247n 
    1.74200    12.5950n 
    1.74210    12.5653n 
    1.74220    12.5358n 
    1.74230    12.5063n 
    1.74240    12.4769n 
    1.74250    12.4476n 
    1.74260    12.4184n 
    1.74270    12.3892n 
    1.74280    12.3601n 
    1.74290    12.3311n 
    1.74300    12.3021n 
    1.74310    12.2733n 
    1.74320    12.2445n 
    1.74330    12.2158n 
    1.74340    12.1871n 
    1.74350    12.1586n 
    1.74360    12.1301n 
    1.74370    12.1016n 
    1.74380    12.0733n 
    1.74390    12.0450n 
    1.74400    12.0168n 
    1.74410    11.9887n 
    1.74420    11.9606n 
    1.74430    11.9327n 
    1.74440    11.9048n 
    1.74450    11.8769n 
    1.74460    11.8492n 
    1.74470    11.8215n 
    1.74480    11.7939n 
    1.74490    11.7663n 
    1.74500    11.7388n 
    1.74510    11.7114n 
    1.74520    11.6841n 
    1.74530    11.6568n 
    1.74540    11.6296n 
    1.74550    11.6025n 
    1.74560    11.5755n 
    1.74570    11.5485n 
    1.74580    11.5216n 
    1.74590    11.4948n 
    1.74600    11.4680n 
    1.74610    11.4413n 
    1.74620    11.4147n 
    1.74630    11.3881n 
    1.74640    11.3616n 
    1.74650    11.3352n 
    1.74660    11.3088n 
    1.74670    11.2825n 
    1.74680    11.2563n 
    1.74690    11.2302n 
    1.74700    11.2041n 
    1.74710    11.1781n 
    1.74720    11.1521n 
    1.74730    11.1262n 
    1.74740    11.1004n 
    1.74750    11.0747n 
    1.74760    11.0490n 
    1.74770    11.0234n 
    1.74780    10.9978n 
    1.74790    10.9724n 
    1.74800    10.9470n 
    1.74810    10.9216n 
    1.74820    10.8963n 
    1.74830    10.8711n 
    1.74840    10.8460n 
    1.74850    10.8209n 
    1.74860    10.7959n 
    1.74870    10.7709n 
    1.74880    10.7460n 
    1.74890    10.7212n 
    1.74900    10.6964n 
    1.74910    10.6717n 
    1.74920    10.6471n 
    1.74930    10.6225n 
    1.74940    10.5980n 
    1.74950    10.5736n 
    1.74960    10.5492n 
    1.74970    10.5249n 
    1.74980    10.5007n 
    1.74990    10.4765n 
    1.75000    10.4523n 
    1.75010    10.4283n 
    1.75020    10.4043n 
    1.75030    10.3803n 
    1.75040    10.3565n 
    1.75050    10.3327n 
    1.75060    10.3089n 
    1.75070    10.2852n 
    1.75080    10.2616n 
    1.75090    10.2380n 
    1.75100    10.2145n 
    1.75110    10.1911n 
    1.75120    10.1677n 
    1.75130    10.1444n 
    1.75140    10.1211n 
    1.75150    10.0979n 
    1.75160    10.0748n 
    1.75170    10.0517n 
    1.75180    10.0287n 
    1.75190    10.0057n 
    1.75200     9.9828n 
    1.75210     9.9600n 
    1.75220     9.9372n 
    1.75230     9.9145n 
    1.75240     9.8918n 
    1.75250     9.8692n 
    1.75260     9.8466n 
    1.75270     9.8242n 
    1.75280     9.8017n 
    1.75290     9.7793n 
    1.75300     9.7570n 
    1.75310     9.7348n 
    1.75320     9.7126n 
    1.75330     9.6904n 
    1.75340     9.6684n 
    1.75350     9.6463n 
    1.75360     9.6244n 
    1.75370     9.6025n 
    1.75380     9.5806n 
    1.75390     9.5588n 
    1.75400     9.5371n 
    1.75410     9.5154n 
    1.75420     9.4938n 
    1.75430     9.4722n 
    1.75440     9.4507n 
    1.75450     9.4292n 
    1.75460     9.4078n 
    1.75470     9.3865n 
    1.75480     9.3652n 
    1.75490     9.3439n 
    1.75500     9.3228n 
    1.75510     9.3016n 
    1.75520     9.2806n 
    1.75530     9.2595n 
    1.75540     9.2386n 
    1.75550     9.2177n 
    1.75560     9.1968n 
    1.75570     9.1760n 
    1.75580     9.1553n 
    1.75590     9.1346n 
    1.75600     9.1139n 
    1.75610     9.0934n 
    1.75620     9.0728n 
    1.75630     9.0524n 
    1.75640     9.0319n 
    1.75650     9.0116n 
    1.75660     8.9912n 
    1.75670     8.9710n 
    1.75680     8.9508n 
    1.75690     8.9306n 
    1.75700     8.9105n 
    1.75710     8.8904n 
    1.75720     8.8704n 
    1.75730     8.8505n 
    1.75740     8.8306n 
    1.75750     8.8107n 
    1.75760     8.7909n 
    1.75770     8.7712n 
    1.75780     8.7515n 
    1.75790     8.7319n 
    1.75800     8.7123n 
    1.75810     8.6927n 
    1.75820     8.6733n 
    1.75830     8.6538n 
    1.75840     8.6344n 
    1.75850     8.6151n 
    1.75860     8.5958n 
    1.75870     8.5766n 
    1.75880     8.5574n 
    1.75890     8.5382n 
    1.75900     8.5192n 
    1.75910     8.5001n 
    1.75920     8.4811n 
    1.75930     8.4622n 
    1.75940     8.4433n 
    1.75950     8.4245n 
    1.75960     8.4057n 
    1.75970     8.3869n 
    1.75980     8.3682n 
    1.75990     8.3496n 
    1.76000     8.3310n 
    1.76010     8.3124n 
    1.76020     8.2939n 
    1.76030     8.2755n 
    1.76040     8.2571n 
    1.76050     8.2387n 
    1.76060     8.2204n 
    1.76070     8.2022n 
    1.76080     8.1839n 
    1.76090     8.1658n 
    1.76100     8.1477n 
    1.76110     8.1296n 
    1.76120     8.1116n 
    1.76130     8.0936n 
    1.76140     8.0757n 
    1.76150     8.0578n 
    1.76160     8.0399n 
    1.76170     8.0221n 
    1.76180     8.0044n 
    1.76190     7.9867n 
    1.76200     7.9690n 
    1.76210     7.9514n 
    1.76220     7.9339n 
    1.76230     7.9164n 
    1.76240     7.8989n 
    1.76250     7.8815n 
    1.76260     7.8641n 
    1.76270     7.8467n 
    1.76280     7.8295n 
    1.76290     7.8122n 
    1.76300     7.7950n 
    1.76310     7.7779n 
    1.76320     7.7607n 
    1.76330     7.7437n 
    1.76340     7.7267n 
    1.76350     7.7097n 
    1.76360     7.6927n 
    1.76370     7.6759n 
    1.76380     7.6590n 
    1.76390     7.6422n 
    1.76400     7.6255n 
    1.76410     7.6087n 
    1.76420     7.5921n 
    1.76430     7.5754n 
    1.76440     7.5589n 
    1.76450     7.5423n 
    1.76460     7.5258n 
    1.76470     7.5094n 
    1.76480     7.4930n 
    1.76490     7.4766n 
    1.76500     7.4603n 
    1.76510     7.4440n 
    1.76520     7.4277n 
    1.76530     7.4115n 
    1.76540     7.3954n 
    1.76550     7.3793n 
    1.76560     7.3632n 
    1.76570     7.3471n 
    1.76580     7.3312n 
    1.76590     7.3152n 
    1.76600     7.2993n 
    1.76610     7.2834n 
    1.76620     7.2676n 
    1.76630     7.2518n 
    1.76640     7.2361n 
    1.76650     7.2204n 
    1.76660     7.2047n 
    1.76670     7.1891n 
    1.76680     7.1735n 
    1.76690     7.1580n 
    1.76700     7.1425n 
    1.76710     7.1270n 
    1.76720     7.1116n 
    1.76730     7.0962n 
    1.76740     7.0809n 
    1.76750     7.0656n 
    1.76760     7.0503n 
    1.76770     7.0351n 
    1.76780     7.0199n 
    1.76790     7.0048n 
    1.76800     6.9897n 
    1.76810     6.9746n 
    1.76820     6.9596n 
    1.76830     6.9446n 
    1.76840     6.9297n 
    1.76850     6.9148n 
    1.76860     6.8999n 
    1.76870     6.8851n 
    1.76880     6.8703n 
    1.76890     6.8555n 
    1.76900     6.8408n 
    1.76910     6.8262n 
    1.76920     6.8115n 
    1.76930     6.7969n 
    1.76940     6.7824n 
    1.76950     6.7678n 
    1.76960     6.7534n 
    1.76970     6.7389n 
    1.76980     6.7245n 
    1.76990     6.7101n 
    1.77000     6.6958n 
    1.77010     6.6815n 
    1.77020     6.6672n 
    1.77030     6.6530n 
    1.77040     6.6388n 
    1.77050     6.6247n 
    1.77060     6.6106n 
    1.77070     6.5965n 
    1.77080     6.5825n 
    1.77090     6.5685n 
    1.77100     6.5545n 
    1.77110     6.5406n 
    1.77120     6.5267n 
    1.77130     6.5128n 
    1.77140     6.4990n 
    1.77150     6.4852n 
    1.77160     6.4715n 
    1.77170     6.4577n 
    1.77180     6.4441n 
    1.77190     6.4304n 
    1.77200     6.4168n 
    1.77210     6.4033n 
    1.77220     6.3897n 
    1.77230     6.3762n 
    1.77240     6.3628n 
    1.77250     6.3493n 
    1.77260     6.3359n 
    1.77270     6.3226n 
    1.77280     6.3092n 
    1.77290     6.2959n 
    1.77300     6.2827n 
    1.77310     6.2695n 
    1.77320     6.2563n 
    1.77330     6.2431n 
    1.77340     6.2300n 
    1.77350     6.2169n 
    1.77360     6.2039n 
    1.77370     6.1909n 
    1.77380     6.1779n 
    1.77390     6.1649n 
    1.77400     6.1520n 
    1.77410     6.1391n 
    1.77420     6.1263n 
    1.77430     6.1135n 
    1.77440     6.1007n 
    1.77450     6.0879n 
    1.77460     6.0752n 
    1.77470     6.0625n 
    1.77480     6.0499n 
    1.77490     6.0373n 
    1.77500     6.0247n 
    1.77510     6.0121n 
    1.77520     5.9996n 
    1.77530     5.9871n 
    1.77540     5.9747n 
    1.77550     5.9622n 
    1.77560     5.9499n 
    1.77570     5.9375n 
    1.77580     5.9252n 
    1.77590     5.9129n 
    1.77600     5.9006n 
    1.77610     5.8884n 
    1.77620     5.8762n 
    1.77630     5.8640n 
    1.77640     5.8519n 
    1.77650     5.8398n 
    1.77660     5.8277n 
    1.77670     5.8157n 
    1.77680     5.8037n 
    1.77690     5.7917n 
    1.77700     5.7798n 
    1.77710     5.7678n 
    1.77720     5.7560n 
    1.77730     5.7441n 
    1.77740     5.7323n 
    1.77750     5.7205n 
    1.77760     5.7087n 
    1.77770     5.6970n 
    1.77780     5.6853n 
    1.77790     5.6736n 
    1.77800     5.6620n 
    1.77810     5.6504n 
    1.77820     5.6388n 
    1.77830     5.6273n 
    1.77840     5.6157n 
    1.77850     5.6043n 
    1.77860     5.5928n 
    1.77870     5.5814n 
    1.77880     5.5700n 
    1.77890     5.5586n 
    1.77900     5.5473n 
    1.77910     5.5360n 
    1.77920     5.5247n 
    1.77930     5.5134n 
    1.77940     5.5022n 
    1.77950     5.4910n 
    1.77960     5.4798n 
    1.77970     5.4687n 
    1.77980     5.4576n 
    1.77990     5.4465n 
    1.78000     5.4355n 
    1.78010     5.4245n 
    1.78020     5.4135n 
    1.78030     5.4025n 
    1.78040     5.3916n 
    1.78050     5.3807n 
    1.78060     5.3698n 
    1.78070     5.3589n 
    1.78080     5.3481n 
    1.78090     5.3373n 
    1.78100     5.3266n 
    1.78110     5.3158n 
    1.78120     5.3051n 
    1.78130     5.2944n 
    1.78140     5.2838n 
    1.78150     5.2732n 
    1.78160     5.2626n 
    1.78170     5.2520n 
    1.78180     5.2415n 
    1.78190     5.2309n 
    1.78200     5.2205n 
    1.78210     5.2100n 
    1.78220     5.1996n 
    1.78230     5.1892n 
    1.78240     5.1788n 
    1.78250     5.1684n 
    1.78260     5.1581n 
    1.78270     5.1478n 
    1.78280     5.1375n 
    1.78290     5.1273n 
    1.78300     5.1171n 
    1.78310     5.1069n 
    1.78320     5.0967n 
    1.78330     5.0866n 
    1.78340     5.0765n 
    1.78350     5.0664n 
    1.78360     5.0563n 
    1.78370     5.0463n 
    1.78380     5.0363n 
    1.78390     5.0263n 
    1.78400     5.0163n 
    1.78410     5.0064n 
    1.78420     4.9965n 
    1.78430     4.9866n 
    1.78440     4.9768n 
    1.78450     4.9670n 
    1.78460     4.9572n 
    1.78470     4.9474n 
    1.78480     4.9376n 
    1.78490     4.9279n 
    1.78500     4.9182n 
    1.78510     4.9085n 
    1.78520     4.8989n 
    1.78530     4.8893n 
    1.78540     4.8797n 
    1.78550     4.8701n 
    1.78560     4.8605n 
    1.78570     4.8510n 
    1.78580     4.8415n 
    1.78590     4.8320n 
    1.78600     4.8226n 
    1.78610     4.8132n 
    1.78620     4.8038n 
    1.78630     4.7944n 
    1.78640     4.7850n 
    1.78650     4.7757n 
    1.78660     4.7664n 
    1.78670     4.7571n 
    1.78680     4.7479n 
    1.78690     4.7386n 
    1.78700     4.7294n 
    1.78710     4.7203n 
    1.78720     4.7111n 
    1.78730     4.7020n 
    1.78740     4.6928n 
    1.78750     4.6838n 
    1.78760     4.6747n 
    1.78770     4.6657n 
    1.78780     4.6566n 
    1.78790     4.6476n 
    1.78800     4.6387n 
    1.78810     4.6297n 
    1.78820     4.6208n 
    1.78830     4.6119n 
    1.78840     4.6030n 
    1.78850     4.5942n 
    1.78860     4.5853n 
    1.78870     4.5765n 
    1.78880     4.5677n 
    1.78890     4.5590n 
    1.78900     4.5502n 
    1.78910     4.5415n 
    1.78920     4.5328n 
    1.78930     4.5242n 
    1.78940     4.5155n 
    1.78950     4.5069n 
    1.78960     4.4983n 
    1.78970     4.4897n 
    1.78980     4.4811n 
    1.78990     4.4726n 
    1.79000     4.4641n 
    1.79010     4.4556n 
    1.79020     4.4471n 
    1.79030     4.4387n 
    1.79040     4.4302n 
    1.79050     4.4218n 
    1.79060     4.4135n 
    1.79070     4.4051n 
    1.79080     4.3968n 
    1.79090     4.3884n 
    1.79100     4.3801n 
    1.79110     4.3719n 
    1.79120     4.3636n 
    1.79130     4.3554n 
    1.79140     4.3472n 
    1.79150     4.3390n 
    1.79160     4.3308n 
    1.79170     4.3227n 
    1.79180     4.3145n 
    1.79190     4.3064n 
    1.79200     4.2984n 
    1.79210     4.2903n 
    1.79220     4.2823n 
    1.79230     4.2742n 
    1.79240     4.2662n 
    1.79250     4.2583n 
    1.79260     4.2503n 
    1.79270     4.2424n 
    1.79280     4.2344n 
    1.79290     4.2265n 
    1.79300     4.2187n 
    1.79310     4.2108n 
    1.79320     4.2030n 
    1.79330     4.1952n 
    1.79340     4.1874n 
    1.79350     4.1796n 
    1.79360     4.1718n 
    1.79370     4.1641n 
    1.79380     4.1564n 
    1.79390     4.1487n 
    1.79400     4.1410n 
    1.79410     4.1334n 
    1.79420     4.1257n 
    1.79430     4.1181n 
    1.79440     4.1105n 
    1.79450     4.1030n 
    1.79460     4.0954n 
    1.79470     4.0879n 
    1.79480     4.0804n 
    1.79490     4.0729n 
    1.79500     4.0654n 
    1.79510     4.0579n 
    1.79520     4.0505n 
    1.79530     4.0431n 
    1.79540     4.0357n 
    1.79550     4.0283n 
    1.79560     4.0209n 
    1.79570     4.0136n 
    1.79580     4.0063n 
    1.79590     3.9990n 
    1.79600     3.9917n 
    1.79610     3.9844n 
    1.79620     3.9772n 
    1.79630     3.9699n 
    1.79640     3.9627n 
    1.79650     3.9555n 
    1.79660     3.9484n 
    1.79670     3.9412n 
    1.79680     3.9341n 
    1.79690     3.9270n 
    1.79700     3.9199n 
    1.79710     3.9128n 
    1.79720     3.9057n 
    1.79730     3.8987n 
    1.79740     3.8917n 
    1.79750     3.8847n 
    1.79760     3.8777n 
    1.79770     3.8707n 
    1.79780     3.8638n 
    1.79790     3.8568n 
    1.79800     3.8499n 
    1.79810     3.8430n 
    1.79820     3.8361n 
    1.79830     3.8293n 
    1.79840     3.8224n 
    1.79850     3.8156n 
    1.79860     3.8088n 
    1.79870     3.8020n 
    1.79880     3.7952n 
    1.79890     3.7885n 
    1.79900     3.7817n 
    1.79910     3.7750n 
    1.79920     3.7683n 
    1.79930     3.7616n 
    1.79940     3.7550n 
    1.79950     3.7483n 
    1.79960     3.7417n 
    1.79970     3.7351n 
    1.79980     3.7285n 
    1.79990     3.7219n 
    1.80000     3.7153n 
y

          ***** job concluded
 ******  
 **testbench**

 ****** job statistics summary tnom=  25.000 temp=  25.000 ******
  
 ******  Machine Information  ******
 CPU:
 model name	: Intel(R) Core(TM) i7-3770 CPU @ 3.40GHz
 cpu MHz	: 3392.084
  
 OS:
 Linux version 2.6.32-642.el6.x86_64 (mockbuild@worker1.bsys.centos.org) (gcc version 4.4.7 20120313 (Red Hat 4.4.7-17) (GCC) ) #1 SMP Tue May 10 17:27:01 UTC 2016


  ******  HSPICE Threads Information  ******

  Command Line Threads Count :     1
  Available CPU Count        :     8
  Actual Threads Count       :     1


  ******  Circuit Statistics  ******
  # nodes       =      16 # elements   =       8
  # resistors   =       0 # capacitors =       0 # inductors   =       0
  # mutual_inds =       0 # vccs       =       0 # vcvs        =       0
  # cccs        =       0 # ccvs       =       0 # volt_srcs   =       2
  # curr_srcs   =       0 # diodes     =       0 # bjts        =       0
  # jfets       =       0 # mosfets    =       6 # U elements  =       0
  # T elements  =       0 # W elements =       0 # B elements  =       0
  # S elements  =       0 # P elements =       0 # va device   =       0
  # vector_srcs =       0 # N elements =       0


  ******  Runtime Statistics (seconds)  ******

  analysis           time    # points   tot. iter  conv.iter
  op point           0.00           1           0
  dc sweep           1.21       18001       36009
  readin             0.02
  errchk             0.00
  setup              0.02
  output             0.00


           peak memory used        290.35 megabytes
           total cpu time            1.30 seconds
           total elapsed time        1.16 seconds
           job started at     20:47:14 06/17/2022
           job ended   at     20:47:15 06/17/2022


 lic: Release hspice token(s) 
 lic: total license checkout elapse time:        0.32(s)
