$DATA1 SOURCE='PrimeSim HSPICE' VERSION='R-2020.12-SP2 linux64' PARAM_COUNT=1
.TITLE '**testbench**'
 td               tdc              tcq              temper          
                  alter#          
  9.500e-09        5.800e-10          failed          25.0000       
                 1               
  9.501e-09        5.790e-10          failed          25.0000       
                 1               
  9.502e-09        5.780e-10          failed          25.0000       
                 1               
  9.503e-09        5.770e-10          failed          25.0000       
                 1               
  9.504e-09        5.760e-10          failed          25.0000       
                 1               
  9.505e-09        5.750e-10          failed          25.0000       
                 1               
  9.506e-09        5.740e-10          failed          25.0000       
                 1               
  9.507e-09        5.730e-10          failed          25.0000       
                 1               
  9.508e-09        5.720e-10          failed          25.0000       
                 1               
  9.509e-09        5.710e-10          failed          25.0000       
                 1               
  9.510e-09        5.700e-10          failed          25.0000       
                 1               
  9.511e-09        5.690e-10          failed          25.0000       
                 1               
  9.512e-09        5.680e-10          failed          25.0000       
                 1               
  9.513e-09        5.670e-10          failed          25.0000       
                 1               
  9.514e-09        5.660e-10          failed          25.0000       
                 1               
  9.515e-09        5.650e-10          failed          25.0000       
                 1               
  9.516e-09        5.640e-10          failed          25.0000       
                 1               
  9.517e-09        5.630e-10          failed          25.0000       
                 1               
  9.518e-09        5.620e-10          failed          25.0000       
                 1               
  9.519e-09        5.610e-10          failed          25.0000       
                 1               
  9.520e-09        5.600e-10          failed          25.0000       
                 1               
  9.521e-09        5.590e-10          failed          25.0000       
                 1               
  9.522e-09        5.580e-10          failed          25.0000       
                 1               
  9.523e-09        5.570e-10          failed          25.0000       
                 1               
  9.524e-09        5.560e-10          failed          25.0000       
                 1               
  9.525e-09        5.550e-10          failed          25.0000       
                 1               
  9.526e-09        5.540e-10          failed          25.0000       
                 1               
  9.527e-09        5.530e-10          failed          25.0000       
                 1               
  9.528e-09        5.520e-10          failed          25.0000       
                 1               
  9.529e-09        5.510e-10          failed          25.0000       
                 1               
  9.530e-09        5.500e-10          failed          25.0000       
                 1               
  9.531e-09        5.490e-10          failed          25.0000       
                 1               
  9.532e-09        5.480e-10          failed          25.0000       
                 1               
  9.533e-09        5.470e-10          failed          25.0000       
                 1               
  9.534e-09        5.460e-10          failed          25.0000       
                 1               
  9.535e-09        5.450e-10          failed          25.0000       
                 1               
  9.536e-09        5.440e-10          failed          25.0000       
                 1               
  9.537e-09        5.430e-10          failed          25.0000       
                 1               
  9.538e-09        5.420e-10          failed          25.0000       
                 1               
  9.539e-09        5.410e-10          failed          25.0000       
                 1               
  9.540e-09        5.400e-10          failed          25.0000       
                 1               
  9.541e-09        5.390e-10          failed          25.0000       
                 1               
  9.542e-09        5.380e-10          failed          25.0000       
                 1               
  9.543e-09        5.370e-10          failed          25.0000       
                 1               
  9.544e-09        5.360e-10          failed          25.0000       
                 1               
  9.545e-09        5.350e-10          failed          25.0000       
                 1               
  9.546e-09        5.340e-10          failed          25.0000       
                 1               
  9.547e-09        5.330e-10          failed          25.0000       
                 1               
  9.548e-09        5.320e-10          failed          25.0000       
                 1               
  9.549e-09        5.310e-10          failed          25.0000       
                 1               
  9.550e-09        5.300e-10          failed          25.0000       
                 1               
  9.551e-09        5.290e-10          failed          25.0000       
                 1               
  9.552e-09        5.280e-10          failed          25.0000       
                 1               
  9.553e-09        5.270e-10          failed          25.0000       
                 1               
  9.554e-09        5.260e-10          failed          25.0000       
                 1               
  9.555e-09        5.250e-10          failed          25.0000       
                 1               
  9.556e-09        5.240e-10          failed          25.0000       
                 1               
  9.557e-09        5.230e-10          failed          25.0000       
                 1               
  9.558e-09        5.220e-10          failed          25.0000       
                 1               
  9.559e-09        5.210e-10          failed          25.0000       
                 1               
  9.560e-09        5.200e-10          failed          25.0000       
                 1               
  9.561e-09        5.190e-10          failed          25.0000       
                 1               
  9.562e-09        5.180e-10          failed          25.0000       
                 1               
  9.563e-09        5.170e-10          failed          25.0000       
                 1               
  9.564e-09        5.160e-10          failed          25.0000       
                 1               
  9.565e-09        5.150e-10          failed          25.0000       
                 1               
  9.566e-09        5.140e-10          failed          25.0000       
                 1               
  9.567e-09        5.130e-10          failed          25.0000       
                 1               
  9.568e-09        5.120e-10          failed          25.0000       
                 1               
  9.569e-09        5.110e-10          failed          25.0000       
                 1               
  9.570e-09        5.100e-10          failed          25.0000       
                 1               
  9.571e-09        5.090e-10          failed          25.0000       
                 1               
  9.572e-09        5.080e-10          failed          25.0000       
                 1               
  9.573e-09        5.070e-10          failed          25.0000       
                 1               
  9.574e-09        5.060e-10          failed          25.0000       
                 1               
  9.575e-09        5.050e-10          failed          25.0000       
                 1               
  9.576e-09        5.040e-10          failed          25.0000       
                 1               
  9.577e-09        5.030e-10          failed          25.0000       
                 1               
  9.578e-09        5.020e-10          failed          25.0000       
                 1               
  9.579e-09        5.010e-10          failed          25.0000       
                 1               
  9.580e-09        5.000e-10          failed          25.0000       
                 1               
  9.581e-09        4.990e-10          failed          25.0000       
                 1               
  9.582e-09        4.980e-10          failed          25.0000       
                 1               
  9.583e-09        4.970e-10          failed          25.0000       
                 1               
  9.584e-09        4.960e-10          failed          25.0000       
                 1               
  9.585e-09        4.950e-10          failed          25.0000       
                 1               
  9.586e-09        4.940e-10          failed          25.0000       
                 1               
  9.587e-09        4.930e-10          failed          25.0000       
                 1               
  9.588e-09        4.920e-10          failed          25.0000       
                 1               
  9.589e-09        4.910e-10          failed          25.0000       
                 1               
  9.590e-09        4.900e-10          failed          25.0000       
                 1               
  9.591e-09        4.890e-10          failed          25.0000       
                 1               
  9.592e-09        4.880e-10          failed          25.0000       
                 1               
  9.593e-09        4.870e-10          failed          25.0000       
                 1               
  9.594e-09        4.860e-10          failed          25.0000       
                 1               
  9.595e-09        4.850e-10          failed          25.0000       
                 1               
  9.596e-09        4.840e-10          failed          25.0000       
                 1               
  9.597e-09        4.830e-10          failed          25.0000       
                 1               
  9.598e-09        4.820e-10          failed          25.0000       
                 1               
  9.599e-09        4.810e-10          failed          25.0000       
                 1               
  9.600e-09        4.800e-10          failed          25.0000       
                 1               
  9.601e-09        4.790e-10          failed          25.0000       
                 1               
  9.602e-09        4.780e-10          failed          25.0000       
                 1               
  9.603e-09        4.770e-10          failed          25.0000       
                 1               
  9.604e-09        4.760e-10          failed          25.0000       
                 1               
  9.605e-09        4.750e-10          failed          25.0000       
                 1               
  9.606e-09        4.740e-10          failed          25.0000       
                 1               
  9.607e-09        4.730e-10          failed          25.0000       
                 1               
  9.608e-09        4.720e-10          failed          25.0000       
                 1               
  9.609e-09        4.710e-10          failed          25.0000       
                 1               
  9.610e-09        4.700e-10          failed          25.0000       
                 1               
  9.611e-09        4.690e-10          failed          25.0000       
                 1               
  9.612e-09        4.680e-10          failed          25.0000       
                 1               
  9.613e-09        4.670e-10          failed          25.0000       
                 1               
  9.614e-09        4.660e-10          failed          25.0000       
                 1               
  9.615e-09        4.650e-10          failed          25.0000       
                 1               
  9.616e-09        4.640e-10          failed          25.0000       
                 1               
  9.617e-09        4.630e-10          failed          25.0000       
                 1               
  9.618e-09        4.620e-10          failed          25.0000       
                 1               
  9.619e-09        4.610e-10          failed          25.0000       
                 1               
  9.620e-09        4.600e-10          failed          25.0000       
                 1               
  9.621e-09        4.590e-10          failed          25.0000       
                 1               
  9.622e-09        4.580e-10          failed          25.0000       
                 1               
  9.623e-09        4.570e-10          failed          25.0000       
                 1               
  9.624e-09        4.560e-10          failed          25.0000       
                 1               
  9.625e-09        4.550e-10          failed          25.0000       
                 1               
  9.626e-09        4.540e-10          failed          25.0000       
                 1               
  9.627e-09        4.530e-10          failed          25.0000       
                 1               
  9.628e-09        4.520e-10          failed          25.0000       
                 1               
  9.629e-09        4.510e-10          failed          25.0000       
                 1               
  9.630e-09        4.500e-10          failed          25.0000       
                 1               
  9.631e-09        4.490e-10          failed          25.0000       
                 1               
  9.632e-09        4.480e-10          failed          25.0000       
                 1               
  9.633e-09        4.470e-10          failed          25.0000       
                 1               
  9.634e-09        4.460e-10          failed          25.0000       
                 1               
  9.635e-09        4.450e-10          failed          25.0000       
                 1               
  9.636e-09        4.440e-10          failed          25.0000       
                 1               
  9.637e-09        4.430e-10          failed          25.0000       
                 1               
  9.638e-09        4.420e-10          failed          25.0000       
                 1               
  9.639e-09        4.410e-10          failed          25.0000       
                 1               
  9.640e-09        4.400e-10          failed          25.0000       
                 1               
  9.641e-09        4.390e-10          failed          25.0000       
                 1               
  9.642e-09        4.380e-10          failed          25.0000       
                 1               
  9.643e-09        4.370e-10          failed          25.0000       
                 1               
  9.644e-09        4.360e-10          failed          25.0000       
                 1               
  9.645e-09        4.350e-10          failed          25.0000       
                 1               
  9.646e-09        4.340e-10          failed          25.0000       
                 1               
  9.647e-09        4.330e-10          failed          25.0000       
                 1               
  9.648e-09        4.320e-10          failed          25.0000       
                 1               
  9.649e-09        4.310e-10          failed          25.0000       
                 1               
  9.650e-09        4.300e-10          failed          25.0000       
                 1               
  9.651e-09        4.290e-10          failed          25.0000       
                 1               
  9.652e-09        4.280e-10          failed          25.0000       
                 1               
  9.653e-09        4.270e-10          failed          25.0000       
                 1               
  9.654e-09        4.260e-10          failed          25.0000       
                 1               
  9.655e-09        4.250e-10          failed          25.0000       
                 1               
  9.656e-09        4.240e-10          failed          25.0000       
                 1               
  9.657e-09        4.230e-10          failed          25.0000       
                 1               
  9.658e-09        4.220e-10          failed          25.0000       
                 1               
  9.659e-09        4.210e-10          failed          25.0000       
                 1               
  9.660e-09        4.200e-10          failed          25.0000       
                 1               
  9.661e-09        4.190e-10          failed          25.0000       
                 1               
  9.662e-09        4.180e-10          failed          25.0000       
                 1               
  9.663e-09        4.170e-10          failed          25.0000       
                 1               
  9.664e-09        4.160e-10          failed          25.0000       
                 1               
  9.665e-09        4.150e-10          failed          25.0000       
                 1               
  9.666e-09        4.140e-10          failed          25.0000       
                 1               
  9.667e-09        4.130e-10          failed          25.0000       
                 1               
  9.668e-09        4.120e-10          failed          25.0000       
                 1               
  9.669e-09        4.110e-10          failed          25.0000       
                 1               
  9.670e-09        4.100e-10          failed          25.0000       
                 1               
  9.671e-09        4.090e-10          failed          25.0000       
                 1               
  9.672e-09        4.080e-10          failed          25.0000       
                 1               
  9.673e-09        4.070e-10          failed          25.0000       
                 1               
  9.674e-09        4.060e-10          failed          25.0000       
                 1               
  9.675e-09        4.050e-10          failed          25.0000       
                 1               
  9.676e-09        4.040e-10          failed          25.0000       
                 1               
  9.677e-09        4.030e-10          failed          25.0000       
                 1               
  9.678e-09        4.020e-10          failed          25.0000       
                 1               
  9.679e-09        4.010e-10          failed          25.0000       
                 1               
  9.680e-09        4.000e-10          failed          25.0000       
                 1               
  9.681e-09        3.990e-10          failed          25.0000       
                 1               
  9.682e-09        3.980e-10          failed          25.0000       
                 1               
  9.683e-09        3.970e-10          failed          25.0000       
                 1               
  9.684e-09        3.960e-10          failed          25.0000       
                 1               
  9.685e-09        3.950e-10          failed          25.0000       
                 1               
  9.686e-09        3.940e-10          failed          25.0000       
                 1               
  9.687e-09        3.930e-10          failed          25.0000       
                 1               
  9.688e-09        3.920e-10          failed          25.0000       
                 1               
  9.689e-09        3.910e-10          failed          25.0000       
                 1               
  9.690e-09        3.900e-10          failed          25.0000       
                 1               
  9.691e-09        3.890e-10          failed          25.0000       
                 1               
  9.692e-09        3.880e-10          failed          25.0000       
                 1               
  9.693e-09        3.870e-10          failed          25.0000       
                 1               
  9.694e-09        3.860e-10          failed          25.0000       
                 1               
  9.695e-09        3.850e-10          failed          25.0000       
                 1               
  9.696e-09        3.840e-10          failed          25.0000       
                 1               
  9.697e-09        3.830e-10          failed          25.0000       
                 1               
  9.698e-09        3.820e-10          failed          25.0000       
                 1               
  9.699e-09        3.810e-10          failed          25.0000       
                 1               
  9.700e-09        3.800e-10          failed          25.0000       
                 1               
  9.701e-09        3.790e-10          failed          25.0000       
                 1               
  9.702e-09        3.780e-10          failed          25.0000       
                 1               
  9.703e-09        3.770e-10          failed          25.0000       
                 1               
  9.704e-09        3.760e-10          failed          25.0000       
                 1               
  9.705e-09        3.750e-10          failed          25.0000       
                 1               
  9.706e-09        3.740e-10          failed          25.0000       
                 1               
  9.707e-09        3.730e-10          failed          25.0000       
                 1               
  9.708e-09        3.720e-10          failed          25.0000       
                 1               
  9.709e-09        3.710e-10          failed          25.0000       
                 1               
  9.710e-09        3.700e-10          failed          25.0000       
                 1               
  9.711e-09        3.690e-10          failed          25.0000       
                 1               
  9.712e-09        3.680e-10          failed          25.0000       
                 1               
  9.713e-09        3.670e-10          failed          25.0000       
                 1               
  9.714e-09        3.660e-10          failed          25.0000       
                 1               
  9.715e-09        3.650e-10          failed          25.0000       
                 1               
  9.716e-09        3.640e-10          failed          25.0000       
                 1               
  9.717e-09        3.630e-10          failed          25.0000       
                 1               
  9.718e-09        3.620e-10          failed          25.0000       
                 1               
  9.719e-09        3.610e-10          failed          25.0000       
                 1               
  9.720e-09        3.600e-10          failed          25.0000       
                 1               
  9.721e-09        3.590e-10          failed          25.0000       
                 1               
  9.722e-09        3.580e-10          failed          25.0000       
                 1               
  9.723e-09        3.570e-10          failed          25.0000       
                 1               
  9.724e-09        3.560e-10          failed          25.0000       
                 1               
  9.725e-09        3.550e-10          failed          25.0000       
                 1               
  9.726e-09        3.540e-10          failed          25.0000       
                 1               
  9.727e-09        3.530e-10          failed          25.0000       
                 1               
  9.728e-09        3.520e-10          failed          25.0000       
                 1               
  9.729e-09        3.510e-10          failed          25.0000       
                 1               
  9.730e-09        3.500e-10          failed          25.0000       
                 1               
  9.731e-09        3.490e-10          failed          25.0000       
                 1               
  9.732e-09        3.480e-10          failed          25.0000       
                 1               
  9.733e-09        3.470e-10          failed          25.0000       
                 1               
  9.734e-09        3.460e-10          failed          25.0000       
                 1               
  9.735e-09        3.450e-10          failed          25.0000       
                 1               
  9.736e-09        3.440e-10          failed          25.0000       
                 1               
  9.737e-09        3.430e-10          failed          25.0000       
                 1               
  9.738e-09        3.420e-10          failed          25.0000       
                 1               
  9.739e-09        3.410e-10          failed          25.0000       
                 1               
  9.740e-09        3.400e-10          failed          25.0000       
                 1               
  9.741e-09        3.390e-10          failed          25.0000       
                 1               
  9.742e-09        3.380e-10          failed          25.0000       
                 1               
  9.743e-09        3.370e-10          failed          25.0000       
                 1               
  9.744e-09        3.360e-10          failed          25.0000       
                 1               
  9.745e-09        3.350e-10          failed          25.0000       
                 1               
  9.746e-09        3.340e-10          failed          25.0000       
                 1               
  9.747e-09        3.330e-10          failed          25.0000       
                 1               
  9.748e-09        3.320e-10          failed          25.0000       
                 1               
  9.749e-09        3.310e-10          failed          25.0000       
                 1               
  9.750e-09        3.300e-10          failed          25.0000       
                 1               
  9.751e-09        3.290e-10          failed          25.0000       
                 1               
  9.752e-09        3.280e-10          failed          25.0000       
                 1               
  9.753e-09        3.270e-10          failed          25.0000       
                 1               
  9.754e-09        3.260e-10          failed          25.0000       
                 1               
  9.755e-09        3.250e-10          failed          25.0000       
                 1               
  9.756e-09        3.240e-10          failed          25.0000       
                 1               
  9.757e-09        3.230e-10          failed          25.0000       
                 1               
  9.758e-09        3.220e-10          failed          25.0000       
                 1               
  9.759e-09        3.210e-10          failed          25.0000       
                 1               
  9.760e-09        3.200e-10          failed          25.0000       
                 1               
  9.761e-09        3.190e-10          failed          25.0000       
                 1               
  9.762e-09        3.180e-10          failed          25.0000       
                 1               
  9.763e-09        3.170e-10          failed          25.0000       
                 1               
  9.764e-09        3.160e-10          failed          25.0000       
                 1               
  9.765e-09        3.150e-10          failed          25.0000       
                 1               
  9.766e-09        3.140e-10          failed          25.0000       
                 1               
  9.767e-09        3.130e-10          failed          25.0000       
                 1               
  9.768e-09        3.120e-10          failed          25.0000       
                 1               
  9.769e-09        3.110e-10          failed          25.0000       
                 1               
  9.770e-09        3.100e-10          failed          25.0000       
                 1               
  9.771e-09        3.090e-10          failed          25.0000       
                 1               
  9.772e-09        3.080e-10          failed          25.0000       
                 1               
  9.773e-09        3.070e-10          failed          25.0000       
                 1               
  9.774e-09        3.060e-10          failed          25.0000       
                 1               
  9.775e-09        3.050e-10          failed          25.0000       
                 1               
  9.776e-09        3.040e-10          failed          25.0000       
                 1               
  9.777e-09        3.030e-10          failed          25.0000       
                 1               
  9.778e-09        3.020e-10          failed          25.0000       
                 1               
  9.779e-09        3.010e-10          failed          25.0000       
                 1               
  9.780e-09        3.000e-10          failed          25.0000       
                 1               
  9.781e-09        2.990e-10          failed          25.0000       
                 1               
  9.782e-09        2.980e-10          failed          25.0000       
                 1               
  9.783e-09        2.970e-10          failed          25.0000       
                 1               
  9.784e-09        2.960e-10          failed          25.0000       
                 1               
  9.785e-09        2.950e-10          failed          25.0000       
                 1               
  9.786e-09        2.940e-10          failed          25.0000       
                 1               
  9.787e-09        2.930e-10          failed          25.0000       
                 1               
  9.788e-09        2.920e-10          failed          25.0000       
                 1               
  9.789e-09        2.910e-10          failed          25.0000       
                 1               
  9.790e-09        2.900e-10          failed          25.0000       
                 1               
  9.791e-09        2.890e-10          failed          25.0000       
                 1               
  9.792e-09        2.880e-10          failed          25.0000       
                 1               
  9.793e-09        2.870e-10          failed          25.0000       
                 1               
  9.794e-09        2.860e-10          failed          25.0000       
                 1               
  9.795e-09        2.850e-10          failed          25.0000       
                 1               
  9.796e-09        2.840e-10          failed          25.0000       
                 1               
  9.797e-09        2.830e-10          failed          25.0000       
                 1               
  9.798e-09        2.820e-10          failed          25.0000       
                 1               
  9.799e-09        2.810e-10          failed          25.0000       
                 1               
  9.800e-09        2.800e-10          failed          25.0000       
                 1               
  9.801e-09        2.790e-10          failed          25.0000       
                 1               
  9.802e-09        2.780e-10          failed          25.0000       
                 1               
  9.803e-09        2.770e-10          failed          25.0000       
                 1               
  9.804e-09        2.760e-10          failed          25.0000       
                 1               
  9.805e-09        2.750e-10          failed          25.0000       
                 1               
  9.806e-09        2.740e-10          failed          25.0000       
                 1               
  9.807e-09        2.730e-10          failed          25.0000       
                 1               
  9.808e-09        2.720e-10          failed          25.0000       
                 1               
  9.809e-09        2.710e-10          failed          25.0000       
                 1               
  9.810e-09        2.700e-10          failed          25.0000       
                 1               
  9.811e-09        2.690e-10          failed          25.0000       
                 1               
  9.812e-09        2.680e-10          failed          25.0000       
                 1               
  9.813e-09        2.670e-10          failed          25.0000       
                 1               
  9.814e-09        2.660e-10          failed          25.0000       
                 1               
  9.815e-09        2.650e-10          failed          25.0000       
                 1               
  9.816e-09        2.640e-10          failed          25.0000       
                 1               
  9.817e-09        2.630e-10          failed          25.0000       
                 1               
  9.818e-09        2.620e-10          failed          25.0000       
                 1               
  9.819e-09        2.610e-10          failed          25.0000       
                 1               
  9.820e-09        2.600e-10          failed          25.0000       
                 1               
  9.821e-09        2.590e-10          failed          25.0000       
                 1               
  9.822e-09        2.580e-10          failed          25.0000       
                 1               
  9.823e-09        2.570e-10          failed          25.0000       
                 1               
  9.824e-09        2.560e-10          failed          25.0000       
                 1               
  9.825e-09        2.550e-10          failed          25.0000       
                 1               
  9.826e-09        2.540e-10          failed          25.0000       
                 1               
  9.827e-09        2.530e-10          failed          25.0000       
                 1               
  9.828e-09        2.520e-10          failed          25.0000       
                 1               
  9.829e-09        2.510e-10          failed          25.0000       
                 1               
  9.830e-09        2.500e-10          failed          25.0000       
                 1               
  9.831e-09        2.490e-10          failed          25.0000       
                 1               
  9.832e-09        2.480e-10          failed          25.0000       
                 1               
  9.833e-09        2.470e-10          failed          25.0000       
                 1               
  9.834e-09        2.460e-10          failed          25.0000       
                 1               
  9.835e-09        2.450e-10          failed          25.0000       
                 1               
  9.836e-09        2.440e-10          failed          25.0000       
                 1               
  9.837e-09        2.430e-10          failed          25.0000       
                 1               
  9.838e-09        2.420e-10          failed          25.0000       
                 1               
  9.839e-09        2.410e-10          failed          25.0000       
                 1               
  9.840e-09        2.400e-10          failed          25.0000       
                 1               
  9.841e-09        2.390e-10          failed          25.0000       
                 1               
  9.842e-09        2.380e-10          failed          25.0000       
                 1               
  9.843e-09        2.370e-10          failed          25.0000       
                 1               
  9.844e-09        2.360e-10          failed          25.0000       
                 1               
  9.845e-09        2.350e-10          failed          25.0000       
                 1               
  9.846e-09        2.340e-10          failed          25.0000       
                 1               
  9.847e-09        2.330e-10          failed          25.0000       
                 1               
  9.848e-09        2.320e-10          failed          25.0000       
                 1               
  9.849e-09        2.310e-10          failed          25.0000       
                 1               
  9.850e-09        2.300e-10          failed          25.0000       
                 1               
  9.851e-09        2.290e-10          failed          25.0000       
                 1               
  9.852e-09        2.280e-10          failed          25.0000       
                 1               
  9.853e-09        2.270e-10          failed          25.0000       
                 1               
  9.854e-09        2.260e-10          failed          25.0000       
                 1               
  9.855e-09        2.250e-10          failed          25.0000       
                 1               
  9.856e-09        2.240e-10          failed          25.0000       
                 1               
  9.857e-09        2.230e-10          failed          25.0000       
                 1               
  9.858e-09        2.220e-10          failed          25.0000       
                 1               
  9.859e-09        2.210e-10          failed          25.0000       
                 1               
  9.860e-09        2.200e-10          failed          25.0000       
                 1               
  9.861e-09        2.190e-10          failed          25.0000       
                 1               
  9.862e-09        2.180e-10          failed          25.0000       
                 1               
  9.863e-09        2.170e-10          failed          25.0000       
                 1               
  9.864e-09        2.160e-10          failed          25.0000       
                 1               
  9.865e-09        2.150e-10          failed          25.0000       
                 1               
  9.866e-09        2.140e-10          failed          25.0000       
                 1               
  9.867e-09        2.130e-10          failed          25.0000       
                 1               
  9.868e-09        2.120e-10          failed          25.0000       
                 1               
  9.869e-09        2.110e-10          failed          25.0000       
                 1               
  9.870e-09        2.100e-10          failed          25.0000       
                 1               
  9.871e-09        2.090e-10          failed          25.0000       
                 1               
  9.872e-09        2.080e-10          failed          25.0000       
                 1               
  9.873e-09        2.070e-10          failed          25.0000       
                 1               
  9.874e-09        2.060e-10          failed          25.0000       
                 1               
  9.875e-09        2.050e-10          failed          25.0000       
                 1               
  9.876e-09        2.040e-10          failed          25.0000       
                 1               
  9.877e-09        2.030e-10          failed          25.0000       
                 1               
  9.878e-09        2.020e-10          failed          25.0000       
                 1               
  9.879e-09        2.010e-10          failed          25.0000       
                 1               
  9.880e-09        2.000e-10          failed          25.0000       
                 1               
  9.881e-09        1.990e-10          failed          25.0000       
                 1               
  9.882e-09        1.980e-10          failed          25.0000       
                 1               
  9.883e-09        1.970e-10          failed          25.0000       
                 1               
  9.884e-09        1.960e-10          failed          25.0000       
                 1               
  9.885e-09        1.950e-10          failed          25.0000       
                 1               
  9.886e-09        1.940e-10          failed          25.0000       
                 1               
  9.887e-09        1.930e-10          failed          25.0000       
                 1               
  9.888e-09        1.920e-10          failed          25.0000       
                 1               
  9.889e-09        1.910e-10          failed          25.0000       
                 1               
  9.890e-09        1.900e-10          failed          25.0000       
                 1               
  9.891e-09        1.890e-10          failed          25.0000       
                 1               
  9.892e-09        1.880e-10          failed          25.0000       
                 1               
  9.893e-09        1.870e-10          failed          25.0000       
                 1               
  9.894e-09        1.860e-10          failed          25.0000       
                 1               
  9.895e-09        1.850e-10          failed          25.0000       
                 1               
  9.896e-09        1.840e-10          failed          25.0000       
                 1               
  9.897e-09        1.830e-10          failed          25.0000       
                 1               
  9.898e-09        1.820e-10          failed          25.0000       
                 1               
  9.899e-09        1.810e-10          failed          25.0000       
                 1               
  9.900e-09        1.800e-10          failed          25.0000       
                 1               
  9.901e-09        1.790e-10          failed          25.0000       
                 1               
  9.902e-09        1.780e-10          failed          25.0000       
                 1               
  9.903e-09        1.770e-10          failed          25.0000       
                 1               
  9.904e-09        1.760e-10          failed          25.0000       
                 1               
  9.905e-09        1.750e-10          failed          25.0000       
                 1               
  9.906e-09        1.740e-10          failed          25.0000       
                 1               
  9.907e-09        1.730e-10          failed          25.0000       
                 1               
  9.908e-09        1.720e-10          failed          25.0000       
                 1               
  9.909e-09        1.710e-10          failed          25.0000       
                 1               
  9.910e-09        1.700e-10          failed          25.0000       
                 1               
  9.911e-09        1.690e-10          failed          25.0000       
                 1               
  9.912e-09        1.680e-10          failed          25.0000       
                 1               
  9.913e-09        1.670e-10          failed          25.0000       
                 1               
  9.914e-09        1.660e-10          failed          25.0000       
                 1               
  9.915e-09        1.650e-10          failed          25.0000       
                 1               
  9.916e-09        1.640e-10          failed          25.0000       
                 1               
  9.917e-09        1.630e-10          failed          25.0000       
                 1               
  9.918e-09        1.620e-10          failed          25.0000       
                 1               
  9.919e-09        1.610e-10          failed          25.0000       
                 1               
  9.920e-09        1.600e-10          failed          25.0000       
                 1               
  9.921e-09        1.590e-10          failed          25.0000       
                 1               
  9.922e-09        1.580e-10          failed          25.0000       
                 1               
  9.923e-09        1.570e-10          failed          25.0000       
                 1               
  9.924e-09        1.560e-10          failed          25.0000       
                 1               
  9.925e-09        1.550e-10          failed          25.0000       
                 1               
  9.926e-09        1.540e-10          failed          25.0000       
                 1               
  9.927e-09        1.530e-10          failed          25.0000       
                 1               
  9.928e-09        1.520e-10          failed          25.0000       
                 1               
  9.929e-09        1.510e-10          failed          25.0000       
                 1               
  9.930e-09        1.500e-10          failed          25.0000       
                 1               
  9.931e-09        1.490e-10          failed          25.0000       
                 1               
  9.932e-09        1.480e-10          failed          25.0000       
                 1               
  9.933e-09        1.470e-10          failed          25.0000       
                 1               
  9.934e-09        1.460e-10          failed          25.0000       
                 1               
  9.935e-09        1.450e-10          failed          25.0000       
                 1               
  9.936e-09        1.440e-10          failed          25.0000       
                 1               
  9.937e-09        1.430e-10          failed          25.0000       
                 1               
  9.938e-09        1.420e-10          failed          25.0000       
                 1               
  9.939e-09        1.410e-10          failed          25.0000       
                 1               
  9.940e-09        1.400e-10          failed          25.0000       
                 1               
  9.941e-09        1.390e-10          failed          25.0000       
                 1               
  9.942e-09        1.380e-10          failed          25.0000       
                 1               
  9.943e-09        1.370e-10          failed          25.0000       
                 1               
  9.944e-09        1.360e-10          failed          25.0000       
                 1               
  9.945e-09        1.350e-10          failed          25.0000       
                 1               
  9.946e-09        1.340e-10          failed          25.0000       
                 1               
  9.947e-09        1.330e-10          failed          25.0000       
                 1               
  9.948e-09        1.320e-10          failed          25.0000       
                 1               
  9.949e-09        1.310e-10          failed          25.0000       
                 1               
  9.950e-09        1.300e-10          failed          25.0000       
                 1               
  9.951e-09        1.290e-10          failed          25.0000       
                 1               
  9.952e-09        1.280e-10          failed          25.0000       
                 1               
  9.953e-09        1.270e-10          failed          25.0000       
                 1               
  9.954e-09        1.260e-10          failed          25.0000       
                 1               
  9.955e-09        1.250e-10          failed          25.0000       
                 1               
  9.956e-09        1.240e-10          failed          25.0000       
                 1               
  9.957e-09        1.230e-10          failed          25.0000       
                 1               
  9.958e-09        1.220e-10          failed          25.0000       
                 1               
  9.959e-09        1.210e-10          failed          25.0000       
                 1               
  9.960e-09        1.200e-10          failed          25.0000       
                 1               
  9.961e-09        1.190e-10          failed          25.0000       
                 1               
  9.962e-09        1.180e-10          failed          25.0000       
                 1               
  9.963e-09        1.170e-10          failed          25.0000       
                 1               
  9.964e-09        1.160e-10          failed          25.0000       
                 1               
  9.965e-09        1.150e-10          failed          25.0000       
                 1               
  9.966e-09        1.140e-10          failed          25.0000       
                 1               
  9.967e-09        1.130e-10          failed          25.0000       
                 1               
  9.968e-09        1.120e-10          failed          25.0000       
                 1               
  9.969e-09        1.110e-10          failed          25.0000       
                 1               
  9.970e-09        1.100e-10          failed          25.0000       
                 1               
  9.971e-09        1.090e-10          failed          25.0000       
                 1               
  9.972e-09        1.080e-10          failed          25.0000       
                 1               
  9.973e-09        1.070e-10          failed          25.0000       
                 1               
  9.974e-09        1.060e-10          failed          25.0000       
                 1               
  9.975e-09        1.050e-10          failed          25.0000       
                 1               
  9.976e-09        1.040e-10          failed          25.0000       
                 1               
  9.977e-09        1.030e-10          failed          25.0000       
                 1               
  9.978e-09        1.020e-10          failed          25.0000       
                 1               
  9.979e-09        1.010e-10          failed          25.0000       
                 1               
  9.980e-09        1.000e-10          failed          25.0000       
                 1               
  9.981e-09        9.900e-11          failed          25.0000       
                 1               
  9.982e-09        9.800e-11          failed          25.0000       
                 1               
  9.983e-09        9.700e-11          failed          25.0000       
                 1               
  9.984e-09        9.600e-11          failed          25.0000       
                 1               
  9.985e-09        9.500e-11          failed          25.0000       
                 1               
  9.986e-09        9.400e-11          failed          25.0000       
                 1               
  9.987e-09        9.300e-11          failed          25.0000       
                 1               
  9.988e-09        9.200e-11          failed          25.0000       
                 1               
  9.989e-09        9.100e-11          failed          25.0000       
                 1               
  9.990e-09        9.000e-11          failed          25.0000       
                 1               
  9.991e-09        8.900e-11          failed          25.0000       
                 1               
  9.992e-09        8.800e-11          failed          25.0000       
                 1               
  9.993e-09        8.700e-11          failed          25.0000       
                 1               
  9.994e-09        8.600e-11          failed          25.0000       
                 1               
  9.995e-09        8.500e-11          failed          25.0000       
                 1               
  9.996e-09        8.400e-11          failed          25.0000       
                 1               
  9.997e-09        8.300e-11          failed          25.0000       
                 1               
  9.998e-09        8.200e-11          failed          25.0000       
                 1               
  9.999e-09        8.100e-11          failed          25.0000       
                 1               
  1.000e-08        8.000e-11          failed          25.0000       
                 1               
  1.000e-08        7.900e-11          failed          25.0000       
                 1               
  1.000e-08        7.800e-11          failed          25.0000       
                 1               
  1.000e-08        7.700e-11          failed          25.0000       
                 1               
  1.000e-08        7.600e-11          failed          25.0000       
                 1               
  1.001e-08        7.500e-11          failed          25.0000       
                 1               
  1.001e-08        7.400e-11          failed          25.0000       
                 1               
  1.001e-08        7.300e-11          failed          25.0000       
                 1               
  1.001e-08        7.200e-11          failed          25.0000       
                 1               
  1.001e-08        7.100e-11          failed          25.0000       
                 1               
  1.001e-08        7.000e-11          failed          25.0000       
                 1               
  1.001e-08        6.900e-11          failed          25.0000       
                 1               
  1.001e-08        6.800e-11          failed          25.0000       
                 1               
  1.001e-08        6.700e-11          failed          25.0000       
                 1               
  1.001e-08        6.600e-11          failed          25.0000       
                 1               
  1.002e-08        6.500e-11          failed          25.0000       
                 1               
  1.002e-08        6.400e-11          failed          25.0000       
                 1               
  1.002e-08        6.300e-11          failed          25.0000       
                 1               
  1.002e-08        6.200e-11          failed          25.0000       
                 1               
  1.002e-08        6.100e-11          failed          25.0000       
                 1               
  1.002e-08        6.000e-11          failed          25.0000       
                 1               
  1.002e-08        5.900e-11          failed          25.0000       
                 1               
  1.002e-08        5.800e-11          failed          25.0000       
                 1               
  1.002e-08        5.700e-11          failed          25.0000       
                 1               
  1.002e-08        5.600e-11          failed          25.0000       
                 1               
  1.003e-08        5.500e-11          failed          25.0000       
                 1               
  1.003e-08        5.400e-11          failed          25.0000       
                 1               
  1.003e-08        5.300e-11          failed          25.0000       
                 1               
  1.003e-08        5.200e-11          failed          25.0000       
                 1               
  1.003e-08        5.100e-11          failed          25.0000       
                 1               
  1.003e-08        5.000e-11          failed          25.0000       
                 1               
  1.003e-08        4.900e-11          failed          25.0000       
                 1               
  1.003e-08        4.800e-11          failed          25.0000       
                 1               
  1.003e-08        4.700e-11          failed          25.0000       
                 1               
  1.003e-08        4.600e-11          failed          25.0000       
                 1               
  1.004e-08        4.500e-11          failed          25.0000       
                 1               
  1.004e-08        4.400e-11          failed          25.0000       
                 1               
  1.004e-08        4.300e-11          failed          25.0000       
                 1               
  1.004e-08        4.200e-11        2.738e-10         25.0000       
                 1               
  1.004e-08        4.100e-11        2.252e-10         25.0000       
                 1               
  1.004e-08        4.000e-11        2.139e-10         25.0000       
                 1               
  1.004e-08        3.900e-11        1.992e-10         25.0000       
                 1               
  1.004e-08        3.800e-11        1.894e-10         25.0000       
                 1               
  1.004e-08        3.700e-11        1.808e-10         25.0000       
                 1               
  1.004e-08        3.600e-11        1.763e-10         25.0000       
                 1               
  1.004e-08        3.500e-11        1.718e-10         25.0000       
                 1               
  1.005e-08        3.400e-11        1.662e-10         25.0000       
                 1               
  1.005e-08        3.300e-11        1.652e-10         25.0000       
                 1               
  1.005e-08        3.200e-11        1.630e-10         25.0000       
                 1               
  1.005e-08        3.100e-11        1.612e-10         25.0000       
                 1               
  1.005e-08        3.000e-11        1.590e-10         25.0000       
                 1               
  1.005e-08        2.900e-11        1.581e-10         25.0000       
                 1               
  1.005e-08        2.800e-11        1.573e-10         25.0000       
                 1               
  1.005e-08        2.700e-11        1.569e-10         25.0000       
                 1               
  1.005e-08        2.600e-11        1.561e-10         25.0000       
                 1               
  1.006e-08        2.500e-11        1.557e-10         25.0000       
                 1               
  1.006e-08        2.400e-11        1.554e-10         25.0000       
                 1               
  1.006e-08        2.300e-11        1.549e-10         25.0000       
                 1               
  1.006e-08        2.200e-11        1.549e-10         25.0000       
                 1               
  1.006e-08        2.100e-11        1.548e-10         25.0000       
                 1               
  1.006e-08        2.000e-11        1.545e-10         25.0000       
                 1               
  1.006e-08        1.900e-11        1.543e-10         25.0000       
                 1               
  1.006e-08        1.800e-11        1.536e-10         25.0000       
                 1               
  1.006e-08        1.700e-11        1.535e-10         25.0000       
                 1               
  1.006e-08        1.600e-11        1.533e-10         25.0000       
                 1               
  1.007e-08        1.500e-11        1.531e-10         25.0000       
                 1               
  1.007e-08        1.400e-11        1.531e-10         25.0000       
                 1               
  1.007e-08        1.300e-11        1.530e-10         25.0000       
                 1               
  1.007e-08        1.200e-11        1.532e-10         25.0000       
                 1               
  1.007e-08        1.100e-11        1.531e-10         25.0000       
                 1               
  1.007e-08        1.000e-11        1.529e-10         25.0000       
                 1               
  1.007e-08        9.000e-12        1.530e-10         25.0000       
                 1               
  1.007e-08        8.000e-12        1.527e-10         25.0000       
                 1               
  1.007e-08        7.000e-12        1.524e-10         25.0000       
                 1               
  1.007e-08        6.000e-12        1.524e-10         25.0000       
                 1               
  1.008e-08        5.000e-12        1.526e-10         25.0000       
                 1               
  1.008e-08        4.000e-12        1.522e-10         25.0000       
                 1               
  1.008e-08        3.000e-12        1.521e-10         25.0000       
                 1               
  1.008e-08        2.000e-12        1.523e-10         25.0000       
                 1               
  1.008e-08        1.000e-12        1.519e-10         25.0000       
                 1               
  1.008e-08        1.654e-24        1.511e-10         25.0000       
                 1               
  1.008e-08       -1.000e-12        1.516e-10         25.0000       
                 1               
  1.008e-08       -2.000e-12        1.516e-10         25.0000       
                 1               
  1.008e-08       -3.000e-12        1.520e-10         25.0000       
                 1               
  1.008e-08       -4.000e-12        1.518e-10         25.0000       
                 1               
  1.009e-08       -5.000e-12        1.513e-10         25.0000       
                 1               
  1.009e-08       -6.000e-12        1.515e-10         25.0000       
                 1               
  1.009e-08       -7.000e-12        1.516e-10         25.0000       
                 1               
  1.009e-08       -8.000e-12        1.514e-10         25.0000       
                 1               
  1.009e-08       -9.000e-12        1.513e-10         25.0000       
                 1               
  1.009e-08       -1.000e-11        1.511e-10         25.0000       
                 1               
  1.009e-08       -1.100e-11        1.509e-10         25.0000       
                 1               
  1.009e-08       -1.200e-11        1.507e-10         25.0000       
                 1               
  1.009e-08       -1.300e-11        1.508e-10         25.0000       
                 1               
  1.009e-08       -1.400e-11        1.507e-10         25.0000       
                 1               
  1.010e-08       -1.500e-11        1.508e-10         25.0000       
                 1               
  1.010e-08       -1.600e-11        1.506e-10         25.0000       
                 1               
  1.010e-08       -1.700e-11        1.502e-10         25.0000       
                 1               
  1.010e-08       -1.800e-11        1.501e-10         25.0000       
                 1               
  1.010e-08       -1.900e-11        1.504e-10         25.0000       
                 1               
  1.010e-08       -2.000e-11        1.499e-10         25.0000       
                 1               
  1.010e-08       -2.100e-11        1.497e-10         25.0000       
                 1               
  1.010e-08       -2.200e-11        1.502e-10         25.0000       
                 1               
  1.010e-08       -2.300e-11        1.496e-10         25.0000       
                 1               
  1.010e-08       -2.400e-11        1.495e-10         25.0000       
                 1               
  1.011e-08       -2.500e-11        1.495e-10         25.0000       
                 1               
  1.011e-08       -2.600e-11        1.494e-10         25.0000       
                 1               
  1.011e-08       -2.700e-11        1.498e-10         25.0000       
                 1               
  1.011e-08       -2.800e-11        1.492e-10         25.0000       
                 1               
  1.011e-08       -2.900e-11        1.490e-10         25.0000       
                 1               
  1.011e-08       -3.000e-11        1.489e-10         25.0000       
                 1               
  1.011e-08       -3.100e-11        1.488e-10         25.0000       
                 1               
  1.011e-08       -3.200e-11        1.488e-10         25.0000       
                 1               
  1.011e-08       -3.300e-11        1.489e-10         25.0000       
                 1               
  1.011e-08       -3.400e-11        1.489e-10         25.0000       
                 1               
  1.011e-08       -3.500e-11        1.489e-10         25.0000       
                 1               
  1.012e-08       -3.600e-11        1.489e-10         25.0000       
                 1               
  1.012e-08       -3.700e-11        1.488e-10         25.0000       
                 1               
  1.012e-08       -3.800e-11        1.485e-10         25.0000       
                 1               
  1.012e-08       -3.900e-11        1.483e-10         25.0000       
                 1               
  1.012e-08       -4.000e-11        1.483e-10         25.0000       
                 1               
  1.012e-08       -4.100e-11        1.484e-10         25.0000       
                 1               
  1.012e-08       -4.200e-11        1.484e-10         25.0000       
                 1               
  1.012e-08       -4.300e-11        1.483e-10         25.0000       
                 1               
  1.012e-08       -4.400e-11        1.484e-10         25.0000       
                 1               
  1.013e-08       -4.500e-11        1.482e-10         25.0000       
                 1               
  1.013e-08       -4.600e-11        1.478e-10         25.0000       
                 1               
  1.013e-08       -4.700e-11        1.476e-10         25.0000       
                 1               
  1.013e-08       -4.800e-11        1.476e-10         25.0000       
                 1               
  1.013e-08       -4.900e-11        1.477e-10         25.0000       
                 1               
  1.013e-08       -5.000e-11        1.478e-10         25.0000       
                 1               
  1.013e-08       -5.100e-11        1.480e-10         25.0000       
                 1               
  1.013e-08       -5.200e-11        1.480e-10         25.0000       
                 1               
  1.013e-08       -5.300e-11        1.477e-10         25.0000       
                 1               
  1.013e-08       -5.400e-11        1.480e-10         25.0000       
                 1               
  1.014e-08       -5.500e-11        1.477e-10         25.0000       
                 1               
  1.014e-08       -5.600e-11        1.482e-10         25.0000       
                 1               
  1.014e-08       -5.700e-11        1.480e-10         25.0000       
                 1               
  1.014e-08       -5.800e-11        1.482e-10         25.0000       
                 1               
  1.014e-08       -5.900e-11        1.480e-10         25.0000       
                 1               
  1.014e-08       -6.000e-11        1.484e-10         25.0000       
                 1               
  1.014e-08       -6.100e-11        1.484e-10         25.0000       
                 1               
  1.014e-08       -6.200e-11        1.484e-10         25.0000       
                 1               
  1.014e-08       -6.300e-11        1.479e-10         25.0000       
                 1               
  1.014e-08       -6.400e-11        1.479e-10         25.0000       
                 1               
  1.015e-08       -6.500e-11        1.479e-10         25.0000       
                 1               
  1.015e-08       -6.600e-11        1.479e-10         25.0000       
                 1               
  1.015e-08       -6.700e-11        1.482e-10         25.0000       
                 1               
  1.015e-08       -6.800e-11        1.479e-10         25.0000       
                 1               
  1.015e-08       -6.900e-11        1.479e-10         25.0000       
                 1               
  1.015e-08       -7.000e-11        1.477e-10         25.0000       
                 1               
  1.015e-08       -7.100e-11        1.477e-10         25.0000       
                 1               
  1.015e-08       -7.200e-11        1.478e-10         25.0000       
                 1               
  1.015e-08       -7.300e-11        1.479e-10         25.0000       
                 1               
  1.015e-08       -7.400e-11        1.482e-10         25.0000       
                 1               
  1.016e-08       -7.500e-11        1.479e-10         25.0000       
                 1               
  1.016e-08       -7.600e-11        1.482e-10         25.0000       
                 1               
  1.016e-08       -7.700e-11        1.481e-10         25.0000       
                 1               
  1.016e-08       -7.800e-11        1.481e-10         25.0000       
                 1               
  1.016e-08       -7.900e-11        1.482e-10         25.0000       
                 1               
  1.016e-08       -8.000e-11        1.481e-10         25.0000       
                 1               
  1.016e-08       -8.100e-11        1.482e-10         25.0000       
                 1               
  1.016e-08       -8.200e-11        1.484e-10         25.0000       
                 1               
  1.016e-08       -8.300e-11        1.482e-10         25.0000       
                 1               
  1.016e-08       -8.400e-11        1.482e-10         25.0000       
                 1               
  1.017e-08       -8.500e-11        1.483e-10         25.0000       
                 1               
  1.017e-08       -8.600e-11        1.482e-10         25.0000       
                 1               
  1.017e-08       -8.700e-11        1.482e-10         25.0000       
                 1               
  1.017e-08       -8.800e-11        1.482e-10         25.0000       
                 1               
  1.017e-08       -8.900e-11        1.481e-10         25.0000       
                 1               
  1.017e-08       -9.000e-11        1.480e-10         25.0000       
                 1               
  1.017e-08       -9.100e-11        1.480e-10         25.0000       
                 1               
  1.017e-08       -9.200e-11        1.480e-10         25.0000       
                 1               
  1.017e-08       -9.300e-11        1.482e-10         25.0000       
                 1               
  1.017e-08       -9.400e-11        1.481e-10         25.0000       
                 1               
  1.018e-08       -9.500e-11        1.481e-10         25.0000       
                 1               
  1.018e-08       -9.600e-11        1.481e-10         25.0000       
                 1               
  1.018e-08       -9.700e-11        1.482e-10         25.0000       
                 1               
  1.018e-08       -9.800e-11        1.481e-10         25.0000       
                 1               
  1.018e-08       -9.900e-11        1.480e-10         25.0000       
                 1               
  1.018e-08       -1.000e-10        1.480e-10         25.0000       
                 1               
  1.018e-08       -1.010e-10        1.480e-10         25.0000       
                 1               
  1.018e-08       -1.020e-10        1.481e-10         25.0000       
                 1               
  1.018e-08       -1.030e-10        1.481e-10         25.0000       
                 1               
  1.018e-08       -1.040e-10        1.481e-10         25.0000       
                 1               
  1.019e-08       -1.050e-10        1.481e-10         25.0000       
                 1               
  1.019e-08       -1.060e-10        1.481e-10         25.0000       
                 1               
  1.019e-08       -1.070e-10        1.483e-10         25.0000       
                 1               
  1.019e-08       -1.080e-10        1.481e-10         25.0000       
                 1               
  1.019e-08       -1.090e-10        1.481e-10         25.0000       
                 1               
  1.019e-08       -1.100e-10        1.481e-10         25.0000       
                 1               
  1.019e-08       -1.110e-10        1.481e-10         25.0000       
                 1               
  1.019e-08       -1.120e-10        1.481e-10         25.0000       
                 1               
  1.019e-08       -1.130e-10        1.481e-10         25.0000       
                 1               
  1.019e-08       -1.140e-10        1.481e-10         25.0000       
                 1               
  1.020e-08       -1.150e-10        1.482e-10         25.0000       
                 1               
  1.020e-08       -1.160e-10        1.482e-10         25.0000       
                 1               
  1.020e-08       -1.170e-10        1.482e-10         25.0000       
                 1               
  1.020e-08       -1.180e-10        1.483e-10         25.0000       
                 1               
  1.020e-08       -1.190e-10        1.484e-10         25.0000       
                 1               
  1.020e-08       -1.200e-10        1.482e-10         25.0000       
                 1               
  1.020e-08       -1.210e-10        1.482e-10         25.0000       
                 1               
  1.020e-08       -1.220e-10        1.484e-10         25.0000       
                 1               
  1.020e-08       -1.230e-10        1.484e-10         25.0000       
                 1               
  1.020e-08       -1.240e-10        1.483e-10         25.0000       
                 1               
  1.021e-08       -1.250e-10        1.483e-10         25.0000       
                 1               
  1.021e-08       -1.260e-10        1.482e-10         25.0000       
                 1               
  1.021e-08       -1.270e-10        1.482e-10         25.0000       
                 1               
  1.021e-08       -1.280e-10        1.481e-10         25.0000       
                 1               
  1.021e-08       -1.290e-10        1.480e-10         25.0000       
                 1               
  1.021e-08       -1.300e-10        1.481e-10         25.0000       
                 1               
  1.021e-08       -1.310e-10        1.482e-10         25.0000       
                 1               
  1.021e-08       -1.320e-10        1.483e-10         25.0000       
                 1               
  1.021e-08       -1.330e-10        1.482e-10         25.0000       
                 1               
  1.021e-08       -1.340e-10        1.481e-10         25.0000       
                 1               
  1.022e-08       -1.350e-10        1.482e-10         25.0000       
                 1               
  1.022e-08       -1.360e-10        1.481e-10         25.0000       
                 1               
  1.022e-08       -1.370e-10        1.480e-10         25.0000       
                 1               
  1.022e-08       -1.380e-10        1.482e-10         25.0000       
                 1               
  1.022e-08       -1.390e-10        1.482e-10         25.0000       
                 1               
  1.022e-08       -1.400e-10        1.483e-10         25.0000       
                 1               
  1.022e-08       -1.410e-10        1.483e-10         25.0000       
                 1               
  1.022e-08       -1.420e-10        1.483e-10         25.0000       
                 1               
  1.022e-08       -1.430e-10        1.483e-10         25.0000       
                 1               
  1.022e-08       -1.440e-10        1.483e-10         25.0000       
                 1               
  1.023e-08       -1.450e-10        1.483e-10         25.0000       
                 1               
  1.023e-08       -1.460e-10        1.483e-10         25.0000       
                 1               
  1.023e-08       -1.470e-10        1.482e-10         25.0000       
                 1               
  1.023e-08       -1.480e-10        1.482e-10         25.0000       
                 1               
  1.023e-08       -1.490e-10        1.481e-10         25.0000       
                 1               
  1.023e-08       -1.500e-10        1.480e-10         25.0000       
                 1               
  1.023e-08       -1.510e-10        1.480e-10         25.0000       
                 1               
  1.023e-08       -1.520e-10        1.480e-10         25.0000       
                 1               
  1.023e-08       -1.530e-10        1.481e-10         25.0000       
                 1               
  1.023e-08       -1.540e-10        1.481e-10         25.0000       
                 1               
  1.024e-08       -1.550e-10        1.485e-10         25.0000       
                 1               
  1.024e-08       -1.560e-10        1.480e-10         25.0000       
                 1               
  1.024e-08       -1.570e-10        1.481e-10         25.0000       
                 1               
  1.024e-08       -1.580e-10        1.483e-10         25.0000       
                 1               
  1.024e-08       -1.590e-10        1.480e-10         25.0000       
                 1               
  1.024e-08       -1.600e-10        1.481e-10         25.0000       
                 1               
  1.024e-08       -1.610e-10        1.481e-10         25.0000       
                 1               
  1.024e-08       -1.620e-10        1.481e-10         25.0000       
                 1               
  1.024e-08       -1.630e-10        1.481e-10         25.0000       
                 1               
  1.024e-08       -1.640e-10        1.482e-10         25.0000       
                 1               
  1.025e-08       -1.650e-10        1.481e-10         25.0000       
                 1               
  1.025e-08       -1.660e-10        1.481e-10         25.0000       
                 1               
  1.025e-08       -1.670e-10        1.481e-10         25.0000       
                 1               
  1.025e-08       -1.680e-10        1.481e-10         25.0000       
                 1               
  1.025e-08       -1.690e-10        1.481e-10         25.0000       
                 1               
  1.025e-08       -1.700e-10        1.480e-10         25.0000       
                 1               
  1.025e-08       -1.710e-10        1.480e-10         25.0000       
                 1               
  1.025e-08       -1.720e-10        1.480e-10         25.0000       
                 1               
  1.025e-08       -1.730e-10        1.480e-10         25.0000       
                 1               
  1.025e-08       -1.740e-10        1.480e-10         25.0000       
                 1               
  1.026e-08       -1.750e-10        1.481e-10         25.0000       
                 1               
  1.026e-08       -1.760e-10        1.481e-10         25.0000       
                 1               
  1.026e-08       -1.770e-10        1.481e-10         25.0000       
                 1               
  1.026e-08       -1.780e-10        1.481e-10         25.0000       
                 1               
  1.026e-08       -1.790e-10        1.481e-10         25.0000       
                 1               
  1.026e-08       -1.800e-10        1.481e-10         25.0000       
                 1               
  1.026e-08       -1.810e-10        1.481e-10         25.0000       
                 1               
  1.026e-08       -1.820e-10        1.481e-10         25.0000       
                 1               
  1.026e-08       -1.830e-10        1.482e-10         25.0000       
                 1               
  1.026e-08       -1.840e-10        1.482e-10         25.0000       
                 1               
  1.027e-08       -1.850e-10        1.481e-10         25.0000       
                 1               
  1.027e-08       -1.860e-10        1.481e-10         25.0000       
                 1               
  1.027e-08       -1.870e-10        1.481e-10         25.0000       
                 1               
  1.027e-08       -1.880e-10        1.481e-10         25.0000       
                 1               
  1.027e-08       -1.890e-10        1.481e-10         25.0000       
                 1               
  1.027e-08       -1.900e-10        1.481e-10         25.0000       
                 1               
  1.027e-08       -1.910e-10        1.481e-10         25.0000       
                 1               
  1.027e-08       -1.920e-10        1.482e-10         25.0000       
                 1               
  1.027e-08       -1.930e-10        1.482e-10         25.0000       
                 1               
  1.027e-08       -1.940e-10        1.482e-10         25.0000       
[...]
  1.031e-08       -2.270e-10        1.485e-10         25.0000       
                 1               
  1.031e-08       -2.280e-10        1.485e-10         25.0000       
                 1               
  1.031e-08       -2.290e-10        1.485e-10         25.0000       
                 1               
  1.031e-08       -2.300e-10        1.485e-10         25.0000       
                 1               
  1.031e-08       -2.310e-10        1.485e-10         25.0000       
                 1               
  1.031e-08       -2.320e-10        1.485e-10         25.0000       
                 1               
  1.031e-08       -2.330e-10        1.485e-10         25.0000       
                 1               
  1.031e-08       -2.340e-10        1.485e-10         25.0000       
                 1               
  1.032e-08       -2.350e-10        1.485e-10         25.0000       
                 1               
  1.032e-08       -2.360e-10        1.485e-10         25.0000       
                 1               
  1.032e-08       -2.370e-10        1.485e-10         25.0000       
                 1               
  1.032e-08       -2.380e-10        1.485e-10         25.0000       
                 1               
  1.032e-08       -2.390e-10        1.485e-10         25.0000       
                 1               
  1.032e-08       -2.400e-10        1.485e-10         25.0000       
                 1               
  1.032e-08       -2.410e-10        1.485e-10         25.0000       
                 1               
  1.032e-08       -2.420e-10        1.485e-10         25.0000       
                 1               
  1.032e-08       -2.430e-10        1.485e-10         25.0000       
                 1               
  1.032e-08       -2.440e-10        1.485e-10         25.0000       
                 1               
  1.033e-08       -2.450e-10        1.485e-10         25.0000       
                 1               
  1.033e-08       -2.460e-10        1.485e-10         25.0000       
                 1               
  1.033e-08       -2.470e-10        1.485e-10         25.0000       
                 1               
  1.033e-08       -2.480e-10        1.485e-10         25.0000       
                 1               
  1.033e-08       -2.490e-10        1.485e-10         25.0000       
                 1               
  1.033e-08       -2.500e-10        1.485e-10         25.0000       
                 1               
  1.033e-08       -2.510e-10        1.485e-10         25.0000       
                 1               
  1.033e-08       -2.520e-10        1.485e-10         25.0000       
                 1               
  1.033e-08       -2.530e-10        1.485e-10         25.0000       
                 1               
  1.033e-08       -2.540e-10        1.485e-10         25.0000       
                 1               
  1.034e-08       -2.550e-10        1.485e-10         25.0000       
                 1               
  1.034e-08       -2.560e-10        1.485e-10         25.0000       
                 1               
  1.034e-08       -2.570e-10        1.485e-10         25.0000       
                 1               
  1.034e-08       -2.580e-10        1.485e-10         25.0000       
                 1               
  1.034e-08       -2.590e-10        1.485e-10         25.0000       
                 1               
  1.034e-08       -2.600e-10        1.485e-10         25.0000       
                 1               
  1.034e-08       -2.610e-10        1.485e-10         25.0000       
                 1               
  1.034e-08       -2.620e-10        1.485e-10         25.0000       
                 1               
  1.034e-08       -2.630e-10        1.485e-10         25.0000       
                 1               
  1.034e-08       -2.640e-10        1.485e-10         25.0000       
                 1               
  1.035e-08       -2.650e-10        1.485e-10         25.0000       
                 1               
  1.035e-08       -2.660e-10        1.485e-10         25.0000       
                 1               
  1.035e-08       -2.670e-10        1.485e-10         25.0000       
                 1               
  1.035e-08       -2.680e-10        1.485e-10         25.0000       
                 1               
  1.035e-08       -2.690e-10        1.485e-10         25.0000       
                 1               
  1.035e-08       -2.700e-10        1.485e-10         25.0000       
                 1               
  1.035e-08       -2.710e-10        1.485e-10         25.0000       
                 1               
  1.035e-08       -2.720e-10        1.485e-10         25.0000       
                 1               
  1.035e-08       -2.730e-10        1.485e-10         25.0000       
                 1               
  1.035e-08       -2.740e-10        1.485e-10         25.0000       
                 1               
  1.036e-08       -2.750e-10        1.485e-10         25.0000       
                 1               
  1.036e-08       -2.760e-10        1.485e-10         25.0000       
                 1               
  1.036e-08       -2.770e-10        1.485e-10         25.0000       
                 1               
  1.036e-08       -2.780e-10        1.485e-10         25.0000       
                 1               
  1.036e-08       -2.790e-10        1.485e-10         25.0000       
                 1               
  1.036e-08       -2.800e-10        1.485e-10         25.0000       
                 1               
  1.036e-08       -2.810e-10        1.485e-10         25.0000       
                 1               
  1.036e-08       -2.820e-10        1.485e-10         25.0000       
                 1               
  1.036e-08       -2.830e-10        1.485e-10         25.0000       
                 1               
  1.036e-08       -2.840e-10        1.485e-10         25.0000       
                 1               
  1.037e-08       -2.850e-10        1.485e-10         25.0000       
                 1               
  1.037e-08       -2.860e-10        1.485e-10         25.0000       
                 1               
  1.037e-08       -2.870e-10        1.485e-10         25.0000       
                 1               
  1.037e-08       -2.880e-10        1.485e-10         25.0000       
                 1               
  1.037e-08       -2.890e-10        1.485e-10         25.0000       
                 1               
  1.037e-08       -2.900e-10        1.485e-10         25.0000       
                 1               
  1.037e-08       -2.910e-10        1.485e-10         25.0000       
                 1               
  1.037e-08       -2.920e-10        1.485e-10         25.0000       
                 1               
  1.037e-08       -2.930e-10        1.485e-10         25.0000       
                 1               
  1.037e-08       -2.940e-10        1.485e-10         25.0000       
                 1               
  1.038e-08       -2.950e-10        1.485e-10         25.0000       
                 1               
  1.038e-08       -2.960e-10        1.485e-10         25.0000       
                 1               
  1.038e-08       -2.970e-10        1.485e-10         25.0000       
                 1               
  1.038e-08       -2.980e-10        1.485e-10         25.0000       
                 1               
  1.038e-08       -2.990e-10        1.485e-10         25.0000       
                 1               
  1.038e-08       -3.000e-10        1.485e-10         25.0000       
                 1               
  1.038e-08       -3.010e-10        1.485e-10         25.0000       
                 1               
  1.038e-08       -3.020e-10        1.485e-10         25.0000       
                 1               
  1.038e-08       -3.030e-10        1.485e-10         25.0000       
                 1               
  1.038e-08       -3.040e-10        1.485e-10         25.0000       
                 1               
  1.039e-08       -3.050e-10        1.485e-10         25.0000       
                 1               
  1.039e-08       -3.060e-10        1.485e-10         25.0000       
                 1               
  1.039e-08       -3.070e-10        1.485e-10         25.0000       
                 1               
  1.039e-08       -3.080e-10        1.485e-10         25.0000       
                 1               
  1.039e-08       -3.090e-10        1.485e-10         25.0000       
                 1               
  1.039e-08       -3.100e-10        1.485e-10         25.0000       
                 1               
  1.039e-08       -3.110e-10        1.485e-10         25.0000       
                 1               
  1.039e-08       -3.120e-10        1.485e-10         25.0000       
                 1               
  1.039e-08       -3.130e-10        1.485e-10         25.0000       
                 1               
  1.039e-08       -3.140e-10        1.485e-10         25.0000       
                 1               
  1.040e-08       -3.150e-10        1.485e-10         25.0000       
                 1               
  1.040e-08       -3.160e-10        1.485e-10         25.0000       
                 1               
  1.040e-08       -3.170e-10        1.485e-10         25.0000       
                 1               
  1.040e-08       -3.180e-10        1.485e-10         25.0000       
                 1               
  1.040e-08       -3.190e-10        1.485e-10         25.0000       
                 1               
  1.040e-08       -3.200e-10        1.485e-10         25.0000       
                 1               
  1.040e-08       -3.210e-10        1.485e-10         25.0000       
                 1               
  1.040e-08       -3.220e-10        1.485e-10         25.0000       
                 1               
  1.040e-08       -3.230e-10        1.485e-10         25.0000       
                 1               
  1.040e-08       -3.240e-10        1.485e-10         25.0000       
                 1               
  1.041e-08       -3.250e-10        1.485e-10         25.0000       
                 1               
  1.041e-08       -3.260e-10        1.485e-10         25.0000       
                 1               
  1.041e-08       -3.270e-10        1.485e-10         25.0000       
                 1               
  1.041e-08       -3.280e-10        1.485e-10         25.0000       
                 1               
  1.041e-08       -3.290e-10        1.485e-10         25.0000       
                 1               
  1.041e-08       -3.300e-10        1.485e-10         25.0000       
                 1               
  1.041e-08       -3.310e-10        1.485e-10         25.0000       
                 1               
  1.041e-08       -3.320e-10        1.485e-10         25.0000       
                 1               
  1.041e-08       -3.330e-10        1.485e-10         25.0000       
                 1               
  1.041e-08       -3.340e-10        1.485e-10         25.0000       
                 1               
  1.042e-08       -3.350e-10        1.485e-10         25.0000       
                 1               
  1.042e-08       -3.360e-10        1.485e-10         25.0000       
                 1               
  1.042e-08       -3.370e-10        1.485e-10         25.0000       
                 1               
  1.042e-08       -3.380e-10        1.485e-10         25.0000       
                 1               
  1.042e-08       -3.390e-10        1.485e-10         25.0000       
                 1               
  1.042e-08       -3.400e-10        1.485e-10         25.0000       
                 1               
  1.042e-08       -3.410e-10        1.485e-10         25.0000       
                 1               
  1.042e-08       -3.420e-10        1.485e-10         25.0000       
                 1               
  1.042e-08       -3.430e-10        1.485e-10         25.0000       
                 1               
  1.042e-08       -3.440e-10        1.485e-10         25.0000       
                 1               
  1.043e-08       -3.450e-10        1.485e-10         25.0000       
                 1               
  1.043e-08       -3.460e-10        1.485e-10         25.0000       
                 1               
  1.043e-08       -3.470e-10        1.485e-10         25.0000       
                 1               
  1.043e-08       -3.480e-10        1.485e-10         25.0000       
                 1               
  1.043e-08       -3.490e-10        1.485e-10         25.0000       
                 1               
  1.043e-08       -3.500e-10        1.485e-10         25.0000       
                 1               
  1.043e-08       -3.510e-10        1.485e-10         25.0000       
                 1               
  1.043e-08       -3.520e-10        1.485e-10         25.0000       
                 1               
  1.043e-08       -3.530e-10        1.485e-10         25.0000       
                 1               
  1.043e-08       -3.540e-10        1.485e-10         25.0000       
                 1               
  1.044e-08       -3.550e-10        1.485e-10         25.0000       
                 1               
  1.044e-08       -3.560e-10        1.485e-10         25.0000       
                 1               
  1.044e-08       -3.570e-10        1.485e-10         25.0000       
                 1               
  1.044e-08       -3.580e-10        1.485e-10         25.0000       
                 1               
  1.044e-08       -3.590e-10        1.485e-10         25.0000       
                 1               
  1.044e-08       -3.600e-10        1.485e-10         25.0000       
                 1               
  1.044e-08       -3.610e-10        1.485e-10         25.0000       
                 1               
  1.044e-08       -3.620e-10        1.485e-10         25.0000       
                 1               
  1.044e-08       -3.630e-10        1.485e-10         25.0000       
                 1               
  1.044e-08       -3.640e-10        1.485e-10         25.0000       
                 1               
  1.045e-08       -3.650e-10        1.485e-10         25.0000       
                 1               
  1.045e-08       -3.660e-10        1.485e-10         25.0000       
                 1               
  1.045e-08       -3.670e-10        1.485e-10         25.0000       
                 1               
  1.045e-08       -3.680e-10        1.485e-10         25.0000       
                 1               
  1.045e-08       -3.690e-10        1.485e-10         25.0000       
                 1               
  1.045e-08       -3.700e-10        1.485e-10         25.0000       
                 1               
  1.045e-08       -3.710e-10        1.485e-10         25.0000       
                 1               
  1.045e-08       -3.720e-10        1.485e-10         25.0000       
                 1               
  1.045e-08       -3.730e-10        1.485e-10         25.0000       
                 1               
  1.045e-08       -3.740e-10        1.485e-10         25.0000       
                 1               
  1.045e-08       -3.750e-10        1.485e-10         25.0000       
                 1               
  1.046e-08       -3.760e-10        1.485e-10         25.0000       
                 1               
  1.046e-08       -3.770e-10        1.485e-10         25.0000       
                 1               
  1.046e-08       -3.780e-10        1.485e-10         25.0000       
                 1               
  1.046e-08       -3.790e-10        1.485e-10         25.0000       
                 1               
  1.046e-08       -3.800e-10        1.485e-10         25.0000       
                 1               
  1.046e-08       -3.810e-10        1.485e-10         25.0000       
                 1               
  1.046e-08       -3.820e-10        1.485e-10         25.0000       
                 1               
  1.046e-08       -3.830e-10        1.485e-10         25.0000       
                 1               
  1.046e-08       -3.840e-10        1.485e-10         25.0000       
                 1               
  1.047e-08       -3.850e-10        1.485e-10         25.0000       
                 1               
  1.047e-08       -3.860e-10        1.485e-10         25.0000       
                 1               
  1.047e-08       -3.870e-10        1.485e-10         25.0000       
                 1               
  1.047e-08       -3.880e-10        1.485e-10         25.0000       
                 1               
  1.047e-08       -3.890e-10        1.485e-10         25.0000       
                 1               
  1.047e-08       -3.900e-10        1.485e-10         25.0000       
                 1               
  1.047e-08       -3.910e-10        1.485e-10         25.0000       
                 1               
  1.047e-08       -3.920e-10        1.485e-10         25.0000       
                 1               
  1.047e-08       -3.930e-10        1.485e-10         25.0000       
                 1               
  1.047e-08       -3.940e-10        1.485e-10         25.0000       
                 1               
  1.048e-08       -3.950e-10        1.485e-10         25.0000       
                 1               
  1.048e-08       -3.960e-10        1.485e-10         25.0000       
                 1               
  1.048e-08       -3.970e-10        1.485e-10         25.0000       
                 1               
  1.048e-08       -3.980e-10        1.485e-10         25.0000       
                 1               
  1.048e-08       -3.990e-10        1.485e-10         25.0000       
                 1               
  1.048e-08       -4.000e-10        1.485e-10         25.0000       
                 1               
  1.048e-08       -4.010e-10        1.485e-10         25.0000       
                 1               
  1.048e-08       -4.020e-10        1.485e-10         25.0000       
                 1               
  1.048e-08       -4.030e-10        1.485e-10         25.0000       
                 1               
  1.048e-08       -4.040e-10        1.485e-10         25.0000       
                 1               
  1.049e-08       -4.050e-10        1.485e-10         25.0000       
                 1               
  1.049e-08       -4.060e-10        1.485e-10         25.0000       
                 1               
  1.049e-08       -4.070e-10        1.485e-10         25.0000       
                 1               
  1.049e-08       -4.080e-10        1.485e-10         25.0000       
                 1               
  1.049e-08       -4.090e-10        1.485e-10         25.0000       
                 1               
  1.049e-08       -4.100e-10        1.485e-10         25.0000       
                 1               
  1.049e-08       -4.110e-10        1.485e-10         25.0000       
                 1               
  1.049e-08       -4.120e-10        1.485e-10         25.0000       
                 1               
  1.049e-08       -4.130e-10        1.485e-10         25.0000       
                 1               
  1.049e-08       -4.140e-10        1.485e-10         25.0000       
                 1               
  1.050e-08       -4.150e-10        1.485e-10         25.0000       
                 1               
  1.050e-08       -4.160e-10        1.485e-10         25.0000       
                 1               
  1.050e-08       -4.170e-10        1.485e-10         25.0000       
                 1               
  1.050e-08       -4.180e-10        1.485e-10         25.0000       
                 1               
  1.050e-08       -4.190e-10        1.485e-10         25.0000       
                 1               
  1.050e-08       -4.200e-10        1.485e-10         25.0000       
                 1               
