$DATA1 SOURCE='PrimeSim HSPICE' VERSION='R-2020.12-SP2 linux64' PARAM_COUNT=1
.TITLE '**testbench**'
 size             rising_delay     temper           alter#          
  2.500e-07        1.718e-10         25.0000        1               
  2.600e-07        1.694e-10         25.0000        1               
  2.700e-07        1.485e-10         25.0000        1               
  2.800e-07        1.455e-10         25.0000        1               
  2.900e-07        1.608e-10         25.0000        1               
  3.000e-07        1.564e-10         25.0000        1               
  3.100e-07        1.536e-10         25.0000        1               
  3.200e-07        1.523e-10         25.0000        1               
  3.300e-07        1.496e-10         25.0000        1               
  3.400e-07        1.511e-10         25.0000        1               
  3.500e-07        1.324e-10         25.0000        1               
  3.600e-07        1.310e-10         25.0000        1               
  3.700e-07        1.297e-10         25.0000        1               
  3.800e-07        1.284e-10         25.0000        1               
  3.900e-07        1.271e-10         25.0000        1               
  4.000e-07        1.259e-10         25.0000        1               
  4.100e-07        1.418e-10         25.0000        1               
  4.200e-07        1.374e-10         25.0000        1               
  4.300e-07        1.234e-10         25.0000        1               
  4.400e-07        1.386e-10         25.0000        1               
  4.500e-07        1.377e-10         25.0000        1               
  4.600e-07        1.334e-10         25.0000        1               
  4.700e-07        1.360e-10         25.0000        1               
  4.800e-07        1.352e-10         25.0000        1               
  4.900e-07        1.343e-10         25.0000        1               
  5.000e-07        1.337e-10         25.0000        1               
  5.100e-07        1.166e-10         25.0000        1               
  5.200e-07        1.160e-10         25.0000        1               
  5.300e-07        1.154e-10         25.0000        1               
  5.400e-07        1.149e-10         25.0000        1               
  5.500e-07        1.307e-10         25.0000        1               
  5.600e-07        1.142e-10         25.0000        1               
  5.700e-07        1.135e-10         25.0000        1               
  5.800e-07        1.275e-10         25.0000        1               
  5.900e-07        1.274e-10         25.0000        1               
  6.000e-07        1.124e-10         25.0000        1               
  6.100e-07        1.125e-10         25.0000        1               
  6.200e-07        1.119e-10         25.0000        1               
  6.300e-07        1.115e-10         25.0000        1               
  6.400e-07        1.113e-10         25.0000        1               
  6.500e-07        1.110e-10         25.0000        1               
  6.600e-07        1.106e-10         25.0000        1               
  6.700e-07        1.103e-10         25.0000        1               
  6.800e-07        1.231e-10         25.0000        1               
  6.900e-07        1.098e-10         25.0000        1               
  7.000e-07        1.100e-10         25.0000        1               
  7.100e-07        1.097e-10         25.0000        1               
  7.200e-07        1.095e-10         25.0000        1               
  7.300e-07        1.093e-10         25.0000        1               
  7.400e-07        1.090e-10         25.0000        1               
  7.500e-07        1.090e-10         25.0000        1               
  7.600e-07        1.086e-10         25.0000        1               
  7.700e-07        1.084e-10         25.0000        1               
  7.800e-07        1.083e-10         25.0000        1               
  7.900e-07        1.083e-10         25.0000        1               
  8.000e-07        1.083e-10         25.0000        1               
  8.100e-07        1.079e-10         25.0000        1               
  8.200e-07        1.078e-10         25.0000        1               
  8.300e-07        1.206e-10         25.0000        1               
  8.400e-07        1.220e-10         25.0000        1               
  8.500e-07        1.076e-10         25.0000        1               
  8.600e-07        1.075e-10         25.0000        1               
  8.700e-07        1.074e-10         25.0000        1               
  8.800e-07        1.074e-10         25.0000        1               
  8.900e-07        1.074e-10         25.0000        1               
  9.000e-07        1.075e-10         25.0000        1               
  9.100e-07        1.073e-10         25.0000        1               
  9.200e-07        1.073e-10         25.0000        1               
  9.300e-07        1.071e-10         25.0000        1               
  9.400e-07        1.071e-10         25.0000        1               
  9.500e-07        1.208e-10         25.0000        1               
  9.600e-07        1.071e-10         25.0000        1               
  9.700e-07        1.069e-10         25.0000        1               
  9.800e-07        1.069e-10         25.0000        1               
  9.900e-07        1.069e-10         25.0000        1               
  1.000e-06        1.069e-10         25.0000        1               
  1.010e-06        1.069e-10         25.0000        1               
  1.020e-06        1.069e-10         25.0000        1               
  1.030e-06        1.218e-10         25.0000        1               
  1.040e-06        1.218e-10         25.0000        1               
  1.050e-06        1.217e-10         25.0000        1               
  1.060e-06        1.217e-10         25.0000        1               
  1.070e-06        1.217e-10         25.0000        1               
  1.080e-06        1.218e-10         25.0000        1               
  1.090e-06        1.218e-10         25.0000        1               
  1.100e-06        1.218e-10         25.0000        1               
  1.110e-06        1.216e-10         25.0000        1               
  1.120e-06        1.199e-10         25.0000        1               
  1.130e-06        1.071e-10         25.0000        1               
  1.140e-06        1.071e-10         25.0000        1               
  1.150e-06        1.209e-10         25.0000        1               
  1.160e-06        1.219e-10         25.0000        1               
  1.170e-06        1.213e-10         25.0000        1               
  1.180e-06        1.213e-10         25.0000        1               
  1.190e-06        1.215e-10         25.0000        1               
  1.200e-06        1.212e-10         25.0000        1               
  1.210e-06        1.210e-10         25.0000        1               
  1.220e-06        1.210e-10         25.0000        1               
  1.230e-06        1.213e-10         25.0000        1               
  1.240e-06        1.229e-10         25.0000        1               
  1.250e-06        1.229e-10         25.0000        1               
  1.260e-06        1.078e-10         25.0000        1               
  1.270e-06        1.223e-10         25.0000        1               
  1.280e-06        1.220e-10         25.0000        1               
  1.290e-06        1.080e-10         25.0000        1               
  1.300e-06        1.081e-10         25.0000        1               
  1.310e-06        1.225e-10         25.0000        1               
  1.320e-06        1.225e-10         25.0000        1               
  1.330e-06        1.225e-10         25.0000        1               
  1.340e-06        1.226e-10         25.0000        1               
  1.350e-06        1.227e-10         25.0000        1               
  1.360e-06        1.088e-10         25.0000        1               
  1.370e-06        1.229e-10         25.0000        1               
  1.380e-06        1.228e-10         25.0000        1               
  1.390e-06        1.223e-10         25.0000        1               
  1.400e-06        1.089e-10         25.0000        1               
  1.410e-06        1.091e-10         25.0000        1               
  1.420e-06        1.093e-10         25.0000        1               
  1.430e-06        1.094e-10         25.0000        1               
  1.440e-06        1.227e-10         25.0000        1               
  1.450e-06        1.095e-10         25.0000        1               
  1.460e-06        1.220e-10         25.0000        1               
  1.470e-06        1.244e-10         25.0000        1               
  1.480e-06        1.229e-10         25.0000        1               
  1.490e-06        1.098e-10         25.0000        1               
  1.500e-06        1.099e-10         25.0000        1               
  1.510e-06        1.100e-10         25.0000        1               
  1.520e-06        1.240e-10         25.0000        1               
  1.530e-06        1.230e-10         25.0000        1               
  1.540e-06        1.234e-10         25.0000        1               
  1.550e-06        1.236e-10         25.0000        1               
  1.560e-06        1.244e-10         25.0000        1               
  1.570e-06        1.228e-10         25.0000        1               
  1.580e-06        1.228e-10         25.0000        1               
  1.590e-06        1.247e-10         25.0000        1               
  1.600e-06        1.243e-10         25.0000        1               
  1.610e-06        1.110e-10         25.0000        1               
  1.620e-06        1.245e-10         25.0000        1               
  1.630e-06        1.241e-10         25.0000        1               
  1.640e-06        1.245e-10         25.0000        1               
  1.650e-06        1.247e-10         25.0000        1               
  1.660e-06        1.251e-10         25.0000        1               
  1.670e-06        1.239e-10         25.0000        1               
  1.680e-06        1.250e-10         25.0000        1               
  1.690e-06        1.242e-10         25.0000        1               
  1.700e-06        1.247e-10         25.0000        1               
  1.710e-06        1.251e-10         25.0000        1               
  1.720e-06        1.254e-10         25.0000        1               
  1.730e-06        1.246e-10         25.0000        1               
  1.740e-06        1.257e-10         25.0000        1               
  1.750e-06        1.257e-10         25.0000        1               
  1.760e-06        1.273e-10         25.0000        1               
  1.770e-06        1.258e-10         25.0000        1               
  1.780e-06        1.259e-10         25.0000        1               
  1.790e-06        1.277e-10         25.0000        1               
  1.800e-06        1.279e-10         25.0000        1               
  1.810e-06        1.260e-10         25.0000        1               
  1.820e-06        1.262e-10         25.0000        1               
  1.830e-06        1.139e-10         25.0000        1               
  1.840e-06        1.273e-10         25.0000        1               
  1.850e-06        1.142e-10         25.0000        1               
  1.860e-06        1.276e-10         25.0000        1               
  1.870e-06        1.285e-10         25.0000        1               
  1.880e-06        1.267e-10         25.0000        1               
  1.890e-06        1.279e-10         25.0000        1               
  1.900e-06        1.267e-10         25.0000        1               
  1.910e-06        1.281e-10         25.0000        1               
  1.920e-06        1.282e-10         25.0000        1               
  1.930e-06        1.152e-10         25.0000        1               
  1.940e-06        1.295e-10         25.0000        1               
  1.950e-06        1.273e-10         25.0000        1               
  1.960e-06        1.154e-10         25.0000        1               
  1.970e-06        1.156e-10         25.0000        1               
  1.980e-06        1.279e-10         25.0000        1               
  1.990e-06        1.277e-10         25.0000        1               
  2.000e-06        1.278e-10         25.0000        1               
  2.010e-06        1.293e-10         25.0000        1               
  2.020e-06        1.289e-10         25.0000        1               
  2.030e-06        1.283e-10         25.0000        1               
  2.040e-06        1.163e-10         25.0000        1               
  2.050e-06        1.167e-10         25.0000        1               
  2.060e-06        1.168e-10         25.0000        1               
  2.070e-06        1.170e-10         25.0000        1               
  2.080e-06        1.169e-10         25.0000        1               
  2.090e-06        1.172e-10         25.0000        1               
  2.100e-06        1.173e-10         25.0000        1               
  2.110e-06        1.303e-10         25.0000        1               
  2.120e-06        1.293e-10         25.0000        1               
  2.130e-06        1.177e-10         25.0000        1               
  2.140e-06        1.179e-10         25.0000        1               
  2.150e-06        1.323e-10         25.0000        1               
  2.160e-06        1.329e-10         25.0000        1               
  2.170e-06        1.330e-10         25.0000        1               
  2.180e-06        1.302e-10         25.0000        1               
  2.190e-06        1.303e-10         25.0000        1               
  2.200e-06        1.188e-10         25.0000        1               
  2.210e-06        1.187e-10         25.0000        1               
  2.220e-06        1.188e-10         25.0000        1               
  2.230e-06        1.191e-10         25.0000        1               
  2.240e-06        1.192e-10         25.0000        1               
  2.250e-06        1.193e-10         25.0000        1               
  2.260e-06        1.325e-10         25.0000        1               
  2.270e-06        1.197e-10         25.0000        1               
  2.280e-06        1.195e-10         25.0000        1               
  2.290e-06        1.317e-10         25.0000        1               
  2.300e-06        1.319e-10         25.0000        1               
  2.310e-06        1.322e-10         25.0000        1               
  2.320e-06        1.323e-10         25.0000        1               
  2.330e-06        1.349e-10         25.0000        1               
  2.340e-06        1.206e-10         25.0000        1               
  2.350e-06        1.336e-10         25.0000        1               
  2.360e-06        1.209e-10         25.0000        1               
  2.370e-06        1.213e-10         25.0000        1               
  2.380e-06        1.213e-10         25.0000        1               
  2.390e-06        1.213e-10         25.0000        1               
  2.400e-06        1.214e-10         25.0000        1               
  2.410e-06        1.340e-10         25.0000        1               
  2.420e-06        1.219e-10         25.0000        1               
  2.430e-06        1.221e-10         25.0000        1               
  2.440e-06        1.220e-10         25.0000        1               
  2.450e-06        1.341e-10         25.0000        1               
  2.460e-06        1.343e-10         25.0000        1               
  2.470e-06        1.344e-10         25.0000        1               
  2.480e-06        1.347e-10         25.0000        1               
  2.490e-06        1.346e-10         25.0000        1               
  2.500e-06        1.352e-10         25.0000        1               
  2.510e-06        1.351e-10         25.0000        1               
  2.520e-06        1.359e-10         25.0000        1               
  2.530e-06        1.351e-10         25.0000        1               
  2.540e-06        1.357e-10         25.0000        1               
  2.550e-06        1.357e-10         25.0000        1               
  2.560e-06        1.359e-10         25.0000        1               
  2.570e-06        1.362e-10         25.0000        1               
  2.580e-06        1.364e-10         25.0000        1               
  2.590e-06        1.366e-10         25.0000        1               
  2.600e-06        1.372e-10         25.0000        1               
  2.610e-06        1.370e-10         25.0000        1               
  2.620e-06        1.368e-10         25.0000        1               
  2.630e-06        1.374e-10         25.0000        1               
  2.640e-06        1.369e-10         25.0000        1               
  2.650e-06        1.371e-10         25.0000        1               
  2.660e-06        1.380e-10         25.0000        1               
  2.670e-06        1.259e-10         25.0000        1               
  2.680e-06        1.375e-10         25.0000        1               
  2.690e-06        1.380e-10         25.0000        1               
  2.700e-06        1.378e-10         25.0000        1               
  2.710e-06        1.379e-10         25.0000        1               
  2.720e-06        1.382e-10         25.0000        1               
  2.730e-06        1.384e-10         25.0000        1               
  2.740e-06        1.386e-10         25.0000        1               
  2.750e-06        1.388e-10         25.0000        1               
  2.760e-06        1.389e-10         25.0000        1               
  2.770e-06        1.394e-10         25.0000        1               
  2.780e-06        1.393e-10         25.0000        1               
  2.790e-06        1.394e-10         25.0000        1               
  2.800e-06        1.396e-10         25.0000        1               
  2.810e-06        1.398e-10         25.0000        1               
  2.820e-06        1.400e-10         25.0000        1               
  2.830e-06        1.402e-10         25.0000        1               
  2.840e-06        1.403e-10         25.0000        1               
  2.850e-06        1.404e-10         25.0000        1               
  2.860e-06        1.406e-10         25.0000        1               
  2.870e-06        1.407e-10         25.0000        1               
  2.880e-06        1.408e-10         25.0000        1               
  2.890e-06        1.422e-10         25.0000        1               
  2.900e-06        1.408e-10         25.0000        1               
  2.910e-06        1.299e-10         25.0000        1               
  2.920e-06        1.415e-10         25.0000        1               
  2.930e-06        1.419e-10         25.0000        1               
  2.940e-06        1.420e-10         25.0000        1               
  2.950e-06        1.416e-10         25.0000        1               
  2.960e-06        1.430e-10         25.0000        1               
  2.970e-06        1.415e-10         25.0000        1               
  2.980e-06        1.425e-10         25.0000        1               
  2.990e-06        1.426e-10         25.0000        1               
  3.000e-06        1.429e-10         25.0000        1               
  3.010e-06        1.429e-10         25.0000        1               
  3.020e-06        1.441e-10         25.0000        1               
  3.030e-06        1.433e-10         25.0000        1               
  3.040e-06        1.433e-10         25.0000        1               
  3.050e-06        1.445e-10         25.0000        1               
  3.060e-06        1.435e-10         25.0000        1               
  3.070e-06        1.432e-10         25.0000        1               
  3.080e-06        1.438e-10         25.0000        1               
  3.090e-06        1.441e-10         25.0000        1               
  3.100e-06        1.453e-10         25.0000        1               
  3.110e-06        1.453e-10         25.0000        1               
  3.120e-06        1.446e-10         25.0000        1               
  3.130e-06        1.454e-10         25.0000        1               
  3.140e-06        1.454e-10         25.0000        1               
  3.150e-06        1.460e-10         25.0000        1               
  3.160e-06        1.463e-10         25.0000        1               
  3.170e-06        1.467e-10         25.0000        1               
  3.180e-06        1.338e-10         25.0000        1               
  3.190e-06        1.457e-10         25.0000        1               
  3.200e-06        1.467e-10         25.0000        1               
  3.210e-06        1.464e-10         25.0000        1               
  3.220e-06        1.462e-10         25.0000        1               
  3.230e-06        1.475e-10         25.0000        1               
  3.240e-06        1.346e-10         25.0000        1               
  3.250e-06        1.351e-10         25.0000        1               
  3.260e-06        1.500e-10         25.0000        1               
  3.270e-06        1.501e-10         25.0000        1               
  3.280e-06        1.481e-10         25.0000        1               
  3.290e-06        1.471e-10         25.0000        1               
  3.300e-06        1.480e-10         25.0000        1               
  3.310e-06        1.468e-10         25.0000        1               
  3.320e-06        1.492e-10         25.0000        1               
  3.330e-06        1.479e-10         25.0000        1               
  3.340e-06        1.490e-10         25.0000        1               
  3.350e-06        1.495e-10         25.0000        1               
  3.360e-06        1.485e-10         25.0000        1               
  3.370e-06        1.478e-10         25.0000        1               
  3.380e-06        1.517e-10         25.0000        1               
  3.390e-06        1.480e-10         25.0000        1               
  3.400e-06        1.499e-10         25.0000        1               
  3.410e-06        1.501e-10         25.0000        1               
  3.420e-06        1.507e-10         25.0000        1               
  3.430e-06        1.508e-10         25.0000        1               
  3.440e-06        1.505e-10         25.0000        1               
  3.450e-06        1.378e-10         25.0000        1               
  3.460e-06        1.504e-10         25.0000        1               
  3.470e-06        1.509e-10         25.0000        1               
  3.480e-06        1.513e-10         25.0000        1               
  3.490e-06        1.514e-10         25.0000        1               
  3.500e-06        1.517e-10         25.0000        1               
  3.510e-06        1.533e-10         25.0000        1               
  3.520e-06        1.509e-10         25.0000        1               
  3.530e-06        1.499e-10         25.0000        1               
  3.540e-06        1.520e-10         25.0000        1               
  3.550e-06        1.538e-10         25.0000        1               
  3.560e-06        1.506e-10         25.0000        1               
  3.570e-06        1.393e-10         25.0000        1               
  3.580e-06        1.397e-10         25.0000        1               
  3.590e-06        1.518e-10         25.0000        1               
  3.600e-06        1.400e-10         25.0000        1               
  3.610e-06        1.526e-10         25.0000        1               
  3.620e-06        1.532e-10         25.0000        1               
  3.630e-06        1.542e-10         25.0000        1               
  3.640e-06        1.406e-10         25.0000        1               
  3.650e-06        1.527e-10         25.0000        1               
  3.660e-06        1.411e-10         25.0000        1               
  3.670e-06        1.412e-10         25.0000        1               
  3.680e-06        1.414e-10         25.0000        1               
  3.690e-06        1.536e-10         25.0000        1               
  3.700e-06        1.548e-10         25.0000        1               
  3.710e-06        1.554e-10         25.0000        1               
  3.720e-06        1.422e-10         25.0000        1               
  3.730e-06        1.532e-10         25.0000        1               
  3.740e-06        1.425e-10         25.0000        1               
  3.750e-06        1.560e-10         25.0000        1               
  3.760e-06        1.427e-10         25.0000        1               
  3.770e-06        1.430e-10         25.0000        1               
  3.780e-06        1.558e-10         25.0000        1               
  3.790e-06        1.560e-10         25.0000        1               
  3.800e-06        1.571e-10         25.0000        1               
  3.810e-06        1.437e-10         25.0000        1               
  3.820e-06        1.438e-10         25.0000        1               
  3.830e-06        1.559e-10         25.0000        1               
  3.840e-06        1.580e-10         25.0000        1               
  3.850e-06        1.576e-10         25.0000        1               
  3.860e-06        1.445e-10         25.0000        1               
  3.870e-06        1.574e-10         25.0000        1               
  3.880e-06        1.447e-10         25.0000        1               
  3.890e-06        1.450e-10         25.0000        1               
  3.900e-06        1.450e-10         25.0000        1               
  3.910e-06        1.456e-10         25.0000        1               
  3.920e-06        1.589e-10         25.0000        1               
  3.930e-06        1.457e-10         25.0000        1               
  3.940e-06        1.593e-10         25.0000        1               
  3.950e-06        1.462e-10         25.0000        1               
  3.960e-06        1.595e-10         25.0000        1               
  3.970e-06        1.597e-10         25.0000        1               
  3.980e-06        1.463e-10         25.0000        1               
  3.990e-06        1.468e-10         25.0000        1               
  4.000e-06        1.467e-10         25.0000        1               
  4.010e-06        1.604e-10         25.0000        1               
  4.020e-06        1.473e-10         25.0000        1               
  4.030e-06        1.608e-10         25.0000        1               
  4.040e-06        1.477e-10         25.0000        1               
  4.050e-06        1.480e-10         25.0000        1               
  4.060e-06        1.480e-10         25.0000        1               
  4.070e-06        1.616e-10         25.0000        1               
  4.080e-06        1.484e-10         25.0000        1               
  4.090e-06        1.484e-10         25.0000        1               
  4.100e-06        1.484e-10         25.0000        1               
  4.110e-06        1.488e-10         25.0000        1               
  4.120e-06        1.625e-10         25.0000        1               
  4.130e-06        1.492e-10         25.0000        1               
  4.140e-06        1.492e-10         25.0000        1               
  4.150e-06        1.493e-10         25.0000        1               
  4.160e-06        1.497e-10         25.0000        1               
  4.170e-06        1.495e-10         25.0000        1               
  4.180e-06        1.619e-10         25.0000        1               
  4.190e-06        1.638e-10         25.0000        1               
  4.200e-06        1.501e-10         25.0000        1               
  4.210e-06        1.508e-10         25.0000        1               
  4.220e-06        1.508e-10         25.0000        1               
  4.230e-06        1.645e-10         25.0000        1               
  4.240e-06        1.510e-10         25.0000        1               
  4.250e-06        1.509e-10         25.0000        1               
  4.260e-06        1.515e-10         25.0000        1               
  4.270e-06        1.517e-10         25.0000        1               
  4.280e-06        1.518e-10         25.0000        1               
  4.290e-06        1.519e-10         25.0000        1               
  4.300e-06        1.521e-10         25.0000        1               
  4.310e-06        1.523e-10         25.0000        1               
  4.320e-06        1.524e-10         25.0000        1               
  4.330e-06        1.526e-10         25.0000        1               
  4.340e-06        1.528e-10         25.0000        1               
  4.350e-06        1.529e-10         25.0000        1               
  4.360e-06        1.531e-10         25.0000        1               
  4.370e-06        1.533e-10         25.0000        1               
  4.380e-06        1.534e-10         25.0000        1               
  4.390e-06        1.537e-10         25.0000        1               
  4.400e-06        1.538e-10         25.0000        1               
  4.410e-06        1.540e-10         25.0000        1               
  4.420e-06        1.542e-10         25.0000        1               
  4.430e-06        1.544e-10         25.0000        1               
  4.440e-06        1.545e-10         25.0000        1               
  4.450e-06        1.547e-10         25.0000        1               
  4.460e-06        1.549e-10         25.0000        1               
  4.470e-06        1.550e-10         25.0000        1               
  4.480e-06        1.551e-10         25.0000        1               
  4.490e-06        1.553e-10         25.0000        1               
  4.500e-06        1.554e-10         25.0000        1               
  4.510e-06        1.556e-10         25.0000        1               
  4.520e-06        1.557e-10         25.0000        1               
  4.530e-06        1.559e-10         25.0000        1               
  4.540e-06        1.560e-10         25.0000        1               
  4.550e-06        1.562e-10         25.0000        1               
  4.560e-06        1.563e-10         25.0000        1               
  4.570e-06        1.564e-10         25.0000        1               
  4.580e-06        1.565e-10         25.0000        1               
  4.590e-06        1.566e-10         25.0000        1               
  4.600e-06        1.567e-10         25.0000        1               
  4.610e-06        1.568e-10         25.0000        1               
  4.620e-06        1.568e-10         25.0000        1               
  4.630e-06        1.568e-10         25.0000        1               
  4.640e-06        1.573e-10         25.0000        1               
  4.650e-06        1.572e-10         25.0000        1               
  4.660e-06        1.573e-10         25.0000        1               
  4.670e-06        1.578e-10         25.0000        1               
  4.680e-06        1.579e-10         25.0000        1               
  4.690e-06        1.580e-10         25.0000        1               
  4.700e-06        1.581e-10         25.0000        1               
  4.710e-06        1.582e-10         25.0000        1               
  4.720e-06        1.584e-10         25.0000        1               
  4.730e-06        1.582e-10         25.0000        1               
  4.740e-06        1.584e-10         25.0000        1               
  4.750e-06        1.585e-10         25.0000        1               
  4.760e-06        1.585e-10         25.0000        1               
  4.770e-06        1.590e-10         25.0000        1               
  4.780e-06        1.591e-10         25.0000        1               
  4.790e-06        1.592e-10         25.0000        1               
  4.800e-06        1.593e-10         25.0000        1               
  4.810e-06        1.595e-10         25.0000        1               
  4.820e-06        1.596e-10         25.0000        1               
  4.830e-06        1.597e-10         25.0000        1               
  4.840e-06        1.599e-10         25.0000        1               
  4.850e-06        1.600e-10         25.0000        1               
  4.860e-06        1.601e-10         25.0000        1               
  4.870e-06        1.603e-10         25.0000        1               
  4.880e-06        1.604e-10         25.0000        1               
  4.890e-06        1.606e-10         25.0000        1               
  4.900e-06        1.603e-10         25.0000        1               
  4.910e-06        1.608e-10         25.0000        1               
  4.920e-06        1.610e-10         25.0000        1               
  4.930e-06        1.611e-10         25.0000        1               
  4.940e-06        1.613e-10         25.0000        1               
  4.950e-06        1.615e-10         25.0000        1               
  4.960e-06        1.616e-10         25.0000        1               
  4.970e-06        1.618e-10         25.0000        1               
  4.980e-06        1.619e-10         25.0000        1               
  4.990e-06        1.621e-10         25.0000        1               
  5.000e-06        1.623e-10         25.0000        1               
