$DATA1 SOURCE='HSPICE' VERSION='O-2018.09 linux64' PARAM_COUNT=1
.TITLE '**testbench**'
 size             rising_delay     falling_delay    delay_avg       
                  temper           alter#          
  2.500e-07        3.786e-10        2.046e-10        2.916e-10      
                    25.0000        1               
  2.600e-07        3.597e-10        1.994e-10        2.796e-10      
                    25.0000        1               
  2.700e-07        3.423e-10        1.976e-10        2.699e-10      
                    25.0000        1               
  2.800e-07        3.258e-10        1.911e-10        2.585e-10      
                    25.0000        1               
  2.900e-07        3.158e-10        1.942e-10        2.550e-10      
                    25.0000        1               
  3.000e-07        3.028e-10        1.908e-10        2.468e-10      
                    25.0000        1               
  3.100e-07        2.938e-10        1.936e-10        2.437e-10      
                    25.0000        1               
  3.200e-07        2.841e-10        1.953e-10        2.397e-10      
                    25.0000        1               
  3.300e-07        2.724e-10        1.923e-10        2.324e-10      
                    25.0000        1               
  3.400e-07        2.664e-10        1.845e-10        2.255e-10      
                    25.0000        1               
  3.500e-07        2.588e-10        1.835e-10        2.211e-10      
                    25.0000        1               
  3.600e-07        2.503e-10        1.858e-10        2.180e-10      
                    25.0000        1               
  3.700e-07        2.489e-10        1.905e-10        2.197e-10      
                    25.0000        1               
  3.800e-07        2.416e-10        1.881e-10        2.149e-10      
                    25.0000        1               
  3.900e-07        2.360e-10        1.806e-10        2.083e-10      
                    25.0000        1               
  4.000e-07        2.303e-10        1.795e-10        2.049e-10      
                    25.0000        1               
  4.100e-07        2.296e-10        1.798e-10        2.047e-10      
                    25.0000        1               
  4.200e-07        2.248e-10        1.806e-10        2.027e-10      
                    25.0000        1               
  4.300e-07        2.209e-10        1.817e-10        2.013e-10      
                    25.0000        1               
  4.400e-07        2.189e-10        1.783e-10        1.986e-10      
                    25.0000        1               
  4.500e-07        2.127e-10        1.802e-10        1.964e-10      
                    25.0000        1               
  4.600e-07        2.090e-10        1.802e-10        1.946e-10      
                    25.0000        1               
  4.700e-07        2.039e-10        1.795e-10        1.917e-10      
                    25.0000        1               
  4.800e-07        2.047e-10        1.812e-10        1.930e-10      
                    25.0000        1               
  4.900e-07        1.978e-10        1.746e-10        1.862e-10      
                    25.0000        1               
  5.000e-07        1.971e-10        1.810e-10        1.890e-10      
                    25.0000        1               
  5.100e-07        1.935e-10        1.802e-10        1.868e-10      
                    25.0000        1               
  5.200e-07        1.932e-10        1.768e-10        1.850e-10      
                    25.0000        1               
  5.300e-07        1.898e-10        1.732e-10        1.815e-10      
                    25.0000        1               
  5.400e-07        1.868e-10        1.755e-10        1.812e-10      
                    25.0000        1               
  5.500e-07        1.842e-10        1.716e-10        1.779e-10      
                    25.0000        1               
  5.600e-07        1.820e-10        1.779e-10        1.799e-10      
                    25.0000        1               
  5.700e-07        1.796e-10        1.718e-10        1.757e-10      
                    25.0000        1               
  5.800e-07        1.779e-10        1.707e-10        1.743e-10      
                    25.0000        1               
  5.900e-07        1.720e-10        1.747e-10        1.734e-10      
                    25.0000        1               
  6.000e-07        1.739e-10        1.793e-10        1.766e-10      
                    25.0000        1               
  6.100e-07        1.736e-10        1.747e-10        1.741e-10      
                    25.0000        1               
  6.200e-07        1.708e-10        1.699e-10        1.704e-10      
                    25.0000        1               
  6.300e-07        1.685e-10        1.786e-10        1.735e-10      
                    25.0000        1               
  6.400e-07        1.676e-10        1.696e-10        1.686e-10      
                    25.0000        1               
  6.500e-07        1.667e-10        1.748e-10        1.707e-10      
                    25.0000        1               
  6.600e-07        1.626e-10        1.700e-10        1.663e-10      
                    25.0000        1               
  6.700e-07        1.608e-10        1.744e-10        1.676e-10      
                    25.0000        1               
  6.800e-07        1.609e-10        1.746e-10        1.677e-10      
                    25.0000        1               
  6.900e-07        1.606e-10        1.735e-10        1.670e-10      
                    25.0000        1               
  7.000e-07        1.581e-10        1.691e-10        1.636e-10      
                    25.0000        1               
  7.100e-07        1.583e-10        1.733e-10        1.658e-10      
                    25.0000        1               
  7.200e-07        1.570e-10        1.735e-10        1.653e-10      
                    25.0000        1               
  7.300e-07        1.543e-10        1.731e-10        1.637e-10      
                    25.0000        1               
  7.400e-07        1.548e-10        1.728e-10        1.638e-10      
                    25.0000        1               
  7.500e-07        1.537e-10        1.728e-10        1.633e-10      
                    25.0000        1               
  7.600e-07        1.536e-10        1.690e-10        1.613e-10      
                    25.0000        1               
  7.700e-07        1.481e-10        1.682e-10        1.581e-10      
                    25.0000        1               
  7.800e-07        1.516e-10        1.746e-10        1.631e-10      
                    25.0000        1               
  7.900e-07        1.497e-10        1.746e-10        1.622e-10      
                    25.0000        1               
  8.000e-07        1.468e-10        1.708e-10        1.588e-10      
                    25.0000        1               
  8.100e-07        1.437e-10        1.687e-10        1.562e-10      
                    25.0000        1               
  8.200e-07        1.467e-10        1.714e-10        1.590e-10      
                    25.0000        1               
  8.300e-07        1.457e-10        1.709e-10        1.583e-10      
                    25.0000        1               
  8.400e-07        1.447e-10        1.702e-10        1.575e-10      
                    25.0000        1               
  8.500e-07        1.438e-10        1.672e-10        1.555e-10      
                    25.0000        1               
  8.600e-07        1.427e-10        1.719e-10        1.573e-10      
                    25.0000        1               
  8.700e-07        1.398e-10        1.749e-10        1.573e-10      
                    25.0000        1               
  8.800e-07        1.394e-10        1.715e-10        1.555e-10      
                    25.0000        1               
  8.900e-07        1.380e-10        1.730e-10        1.555e-10      
                    25.0000        1               
  9.000e-07        1.396e-10        1.746e-10        1.571e-10      
                    25.0000        1               
  9.100e-07        1.352e-10        1.665e-10        1.509e-10      
                    25.0000        1               
  9.200e-07        1.379e-10        1.729e-10        1.554e-10      
                    25.0000        1               
  9.300e-07        1.338e-10        1.689e-10        1.514e-10      
                    25.0000        1               
  9.400e-07        1.336e-10        1.695e-10        1.515e-10      
                    25.0000        1               
  9.500e-07        1.349e-10        1.679e-10        1.514e-10      
                    25.0000        1               
  9.600e-07        1.342e-10        1.716e-10        1.529e-10      
                    25.0000        1               
  9.700e-07        1.305e-10        1.741e-10        1.523e-10      
                    25.0000        1               
  9.800e-07        1.302e-10        1.652e-10        1.477e-10      
                    25.0000        1               
  9.900e-07        1.293e-10        1.689e-10        1.491e-10      
                    25.0000        1               
  1.000e-06        1.289e-10        1.702e-10        1.495e-10      
                    25.0000        1               
  1.010e-06        1.278e-10        1.687e-10        1.482e-10      
                    25.0000        1               
  1.020e-06        1.304e-10        1.710e-10        1.507e-10      
                    25.0000        1               
  1.030e-06        1.273e-10        1.707e-10        1.490e-10      
                    25.0000        1               
  1.040e-06        1.293e-10        1.662e-10        1.477e-10      
                    25.0000        1               
  1.050e-06        1.303e-10        1.692e-10        1.497e-10      
                    25.0000        1               
  1.060e-06        1.312e-10        1.721e-10        1.516e-10      
                    25.0000        1               
  1.070e-06        1.286e-10        1.688e-10        1.487e-10      
                    25.0000        1               
  1.080e-06        1.231e-10        1.714e-10        1.472e-10      
                    25.0000        1               
  1.090e-06        1.231e-10        1.714e-10        1.472e-10      
                    25.0000        1               
  1.100e-06        1.228e-10        1.684e-10        1.456e-10      
                    25.0000        1               
  1.110e-06        1.246e-10        1.697e-10        1.472e-10      
                    25.0000        1               
  1.120e-06        1.272e-10        1.669e-10        1.470e-10      
                    25.0000        1               
  1.130e-06        1.202e-10        1.707e-10        1.455e-10      
                    25.0000        1               
  1.140e-06        1.190e-10        1.709e-10        1.450e-10      
                    25.0000        1               
  1.150e-06        1.213e-10        1.710e-10        1.461e-10      
                    25.0000        1               
  1.160e-06        1.193e-10        1.710e-10        1.451e-10      
                    25.0000        1               
  1.170e-06        1.201e-10        1.716e-10        1.459e-10      
                    25.0000        1               
  1.180e-06        1.191e-10        1.716e-10        1.453e-10      
                    25.0000        1               
  1.190e-06        1.191e-10        1.710e-10        1.451e-10      
                    25.0000        1               
  1.200e-06        1.194e-10        1.711e-10        1.453e-10      
                    25.0000        1               
  1.210e-06        1.173e-10        1.711e-10        1.442e-10      
                    25.0000        1               
  1.220e-06        1.183e-10        1.712e-10        1.447e-10      
                    25.0000        1               
  1.230e-06        1.179e-10        1.711e-10        1.445e-10      
                    25.0000        1               
  1.240e-06        1.178e-10        1.711e-10        1.445e-10      
                    25.0000        1               
  1.250e-06        1.183e-10        1.721e-10        1.452e-10      
                    25.0000        1               
  1.260e-06        1.165e-10        1.712e-10        1.439e-10      
                    25.0000        1               
  1.270e-06        1.162e-10        1.665e-10        1.413e-10      
                    25.0000        1               
  1.280e-06        1.160e-10        1.661e-10        1.410e-10      
                    25.0000        1               
  1.290e-06        1.157e-10        1.660e-10        1.408e-10      
                    25.0000        1               
  1.300e-06        1.148e-10        1.667e-10        1.408e-10      
                    25.0000        1               
  1.310e-06        1.127e-10        1.714e-10        1.420e-10      
                    25.0000        1               
  1.320e-06        1.152e-10        1.681e-10        1.417e-10      
                    25.0000        1               
  1.330e-06        1.139e-10        1.663e-10        1.401e-10      
                    25.0000        1               
  1.340e-06        1.151e-10        1.678e-10        1.414e-10      
                    25.0000        1               
  1.350e-06        1.156e-10        1.733e-10        1.444e-10      
                    25.0000        1               
  1.360e-06        1.130e-10        1.714e-10        1.422e-10      
                    25.0000        1               
  1.370e-06        1.129e-10        1.702e-10        1.415e-10      
                    25.0000        1               
  1.380e-06        1.103e-10        1.723e-10        1.413e-10      
                    25.0000        1               
  1.390e-06        1.100e-10        1.723e-10        1.411e-10      
                    25.0000        1               
  1.400e-06        1.097e-10        1.723e-10        1.410e-10      
                    25.0000        1               
  1.410e-06        1.094e-10        1.723e-10        1.409e-10      
                    25.0000        1               
  1.420e-06        1.091e-10        1.723e-10        1.407e-10      
                    25.0000        1               
  1.430e-06        1.150e-10        1.726e-10        1.438e-10      
                    25.0000        1               
  1.440e-06        1.110e-10        1.720e-10        1.415e-10      
                    25.0000        1               
  1.450e-06        1.096e-10        1.690e-10        1.393e-10      
                    25.0000        1               
  1.460e-06        1.111e-10        1.677e-10        1.394e-10      
                    25.0000        1               
  1.470e-06        1.130e-10        1.739e-10        1.434e-10      
                    25.0000        1               
  1.480e-06        1.104e-10        1.708e-10        1.406e-10      
                    25.0000        1               
  1.490e-06        1.124e-10        1.673e-10        1.399e-10      
                    25.0000        1               
  1.500e-06        1.091e-10        1.713e-10        1.402e-10      
                    25.0000        1               
  1.510e-06        1.070e-10        1.727e-10        1.398e-10      
                    25.0000        1               
  1.520e-06        1.113e-10        1.730e-10        1.421e-10      
                    25.0000        1               
  1.530e-06        1.088e-10        1.730e-10        1.409e-10      
                    25.0000        1               
  1.540e-06        1.081e-10        1.672e-10        1.376e-10      
                    25.0000        1               
  1.550e-06        1.088e-10        1.749e-10        1.418e-10      
                    25.0000        1               
  1.560e-06        1.099e-10        1.674e-10        1.387e-10      
                    25.0000        1               
  1.570e-06        1.111e-10        1.738e-10        1.424e-10      
                    25.0000        1               
  1.580e-06        1.110e-10        1.745e-10        1.428e-10      
                    25.0000        1               
  1.590e-06        1.074e-10        1.732e-10        1.403e-10      
                    25.0000        1               
  1.600e-06        1.098e-10        1.735e-10        1.417e-10      
                    25.0000        1               
  1.610e-06        1.094e-10        1.681e-10        1.388e-10      
                    25.0000        1               
  1.620e-06        1.091e-10        1.685e-10        1.388e-10      
                    25.0000        1               
  1.630e-06        1.060e-10        1.736e-10        1.398e-10      
                    25.0000        1               
  1.640e-06        1.055e-10        1.736e-10        1.395e-10      
                    25.0000        1               
  1.650e-06        1.089e-10        1.719e-10        1.404e-10      
                    25.0000        1               
  1.660e-06        1.056e-10        1.685e-10        1.371e-10      
                    25.0000        1               
  1.670e-06        1.053e-10        1.737e-10        1.395e-10      
                    25.0000        1               
  1.680e-06        1.078e-10        1.758e-10        1.418e-10      
                    25.0000        1               
  1.690e-06        1.038e-10        1.741e-10        1.390e-10      
                    25.0000        1               
  1.700e-06        1.023e-10        1.739e-10        1.381e-10      
                    25.0000        1               
  1.710e-06        1.076e-10        1.761e-10        1.418e-10      
                    25.0000        1               
  1.720e-06        1.064e-10        1.742e-10        1.403e-10      
                    25.0000        1               
  1.730e-06        1.075e-10        1.733e-10        1.404e-10      
                    25.0000        1               
  1.740e-06        1.071e-10        1.744e-10        1.407e-10      
                    25.0000        1               
  1.750e-06        1.069e-10        1.765e-10        1.417e-10      
                    25.0000        1               
  1.760e-06        1.069e-10        1.745e-10        1.407e-10      
                    25.0000        1               
  1.770e-06        1.065e-10        1.740e-10        1.402e-10      
                    25.0000        1               
  1.780e-06        1.048e-10        1.698e-10        1.373e-10      
                    25.0000        1               
  1.790e-06        1.053e-10        1.746e-10        1.400e-10      
                    25.0000        1               
  1.800e-06        1.046e-10        1.700e-10        1.373e-10      
                    25.0000        1               
  1.810e-06        1.036e-10        1.749e-10        1.393e-10      
                    25.0000        1               
  1.820e-06        1.024e-10        1.750e-10        1.387e-10      
                    25.0000        1               
  1.830e-06        1.054e-10        1.698e-10        1.376e-10      
                    25.0000        1               
  1.840e-06        1.041e-10        1.727e-10        1.384e-10      
                    25.0000        1               
  1.850e-06        1.005e-10        1.745e-10        1.375e-10      
                    25.0000        1               
  1.860e-06        1.039e-10        1.771e-10        1.405e-10      
                    25.0000        1               
  1.870e-06        1.031e-10        1.700e-10        1.365e-10      
                    25.0000        1               
  1.880e-06        1.008e-10        1.760e-10        1.384e-10      
                    25.0000        1               
  1.890e-06        1.008e-10        1.732e-10        1.370e-10      
                    25.0000        1               
  1.900e-06        1.013e-10        1.709e-10        1.361e-10      
                    25.0000        1               
  1.910e-06        1.015e-10        1.705e-10        1.360e-10      
                    25.0000        1               
  1.920e-06        1.006e-10        1.710e-10        1.358e-10      
                    25.0000        1               
  1.930e-06        1.003e-10        1.711e-10        1.357e-10      
                    25.0000        1               
  1.940e-06        1.000e-10        1.711e-10        1.355e-10      
                    25.0000        1               
  1.950e-06        1.022e-10        1.754e-10        1.388e-10      
                    25.0000        1               
  1.960e-06        1.004e-10        1.783e-10        1.393e-10      
                    25.0000        1               
  1.970e-06        1.001e-10        1.784e-10        1.393e-10      
                    25.0000        1               
  1.980e-06        1.015e-10        1.717e-10        1.366e-10      
                    25.0000        1               
  1.990e-06        9.871e-11        1.767e-10        1.377e-10      
                    25.0000        1               
  2.000e-06        9.955e-11        1.787e-10        1.391e-10      
                    25.0000        1               
  2.010e-06        9.799e-11        1.744e-10        1.362e-10      
                    25.0000        1               
  2.020e-06        9.781e-11        1.744e-10        1.361e-10      
                    25.0000        1               
  2.030e-06        9.759e-11        1.771e-10        1.374e-10      
                    25.0000        1               
  2.040e-06        1.009e-10        1.775e-10        1.392e-10      
                    25.0000        1               
  2.050e-06        9.689e-11        1.773e-10        1.371e-10      
                    25.0000        1               
  2.060e-06        9.813e-11        1.742e-10        1.362e-10      
                    25.0000        1               
  2.070e-06        9.903e-11        1.790e-10        1.390e-10      
                    25.0000        1               
  2.080e-06        9.576e-11        1.776e-10        1.367e-10      
                    25.0000        1               
  2.090e-06        9.678e-11        1.747e-10        1.357e-10      
                    25.0000        1               
  2.100e-06        9.652e-11        1.792e-10        1.379e-10      
                    25.0000        1               
  2.110e-06        9.858e-11        1.782e-10        1.384e-10      
                    25.0000        1               
  2.120e-06        9.985e-11        1.775e-10        1.387e-10      
                    25.0000        1               
  2.130e-06        9.608e-11        1.782e-10        1.371e-10      
                    25.0000        1               
  2.140e-06        9.903e-11        1.773e-10        1.381e-10      
                    25.0000        1               
  2.150e-06        9.803e-11        1.792e-10        1.386e-10      
                    25.0000        1               
  2.160e-06        9.874e-11        1.788e-10        1.388e-10      
                    25.0000        1               
  2.170e-06        9.485e-11        1.734e-10        1.341e-10      
                    25.0000        1               
  2.180e-06        9.468e-11        1.734e-10        1.341e-10      
                    25.0000        1               
  2.190e-06        9.597e-11        1.742e-10        1.351e-10      
                    25.0000        1               
  2.200e-06        9.463e-11        1.760e-10        1.353e-10      
                    25.0000        1               
  2.210e-06        9.767e-11        1.818e-10        1.397e-10      
                    25.0000        1               
  2.220e-06        9.527e-11        1.796e-10        1.374e-10      
                    25.0000        1               
  2.230e-06        9.568e-11        1.739e-10        1.348e-10      
                    25.0000        1               
  2.240e-06        9.409e-11        1.747e-10        1.344e-10      
                    25.0000        1               
  2.250e-06        9.411e-11        1.778e-10        1.360e-10      
                    25.0000        1               
  2.260e-06        9.428e-11        1.783e-10        1.363e-10      
                    25.0000        1               
  2.270e-06        9.426e-11        1.763e-10        1.353e-10      
                    25.0000        1               
  2.280e-06        9.447e-11        1.768e-10        1.356e-10      
                    25.0000        1               
  2.290e-06        9.453e-11        1.792e-10        1.368e-10      
                    25.0000        1               
  2.300e-06        9.351e-11        1.791e-10        1.363e-10      
                    25.0000        1               
  2.310e-06        9.593e-11        1.792e-10        1.376e-10      
                    25.0000        1               
  2.320e-06        9.852e-11        1.807e-10        1.396e-10      
                    25.0000        1               
  2.330e-06        9.740e-11        1.775e-10        1.375e-10      
                    25.0000        1               
  2.340e-06        9.360e-11        1.777e-10        1.357e-10      
                    25.0000        1               
  2.350e-06        9.847e-11        1.811e-10        1.398e-10      
                    25.0000        1               
  2.360e-06        9.288e-11        1.808e-10        1.368e-10      
                    25.0000        1               
  2.370e-06        9.310e-11        1.800e-10        1.365e-10      
                    25.0000        1               
  2.380e-06        9.311e-11        1.816e-10        1.374e-10      
                    25.0000        1               
  2.390e-06        9.648e-11        1.812e-10        1.388e-10      
                    25.0000        1               
  2.400e-06        9.258e-11        1.810e-10        1.368e-10      
                    25.0000        1               
  2.410e-06        9.347e-11        1.817e-10        1.376e-10      
                    25.0000        1               
  2.420e-06        9.603e-11        1.818e-10        1.389e-10      
                    25.0000        1               
  2.430e-06        9.253e-11        1.818e-10        1.372e-10      
                    25.0000        1               
  2.440e-06        9.307e-11        1.822e-10        1.376e-10      
                    25.0000        1               
  2.450e-06        9.246e-11        1.809e-10        1.367e-10      
                    25.0000        1               
  2.460e-06        9.217e-11        1.817e-10        1.369e-10      
                    25.0000        1               
  2.470e-06        9.600e-11        1.824e-10        1.392e-10      
                    25.0000        1               
  2.480e-06        9.190e-11        1.804e-10        1.362e-10      
                    25.0000        1               
  2.490e-06        9.270e-11        1.823e-10        1.375e-10      
                    25.0000        1               
  2.500e-06        9.174e-11        1.795e-10        1.356e-10      
                    25.0000        1               
  2.510e-06        9.173e-11        1.818e-10        1.368e-10      
                    25.0000        1               
  2.520e-06        9.174e-11        1.830e-10        1.374e-10      
                    25.0000        1               
  2.530e-06        9.160e-11        1.832e-10        1.374e-10      
                    25.0000        1               
  2.540e-06        9.384e-11        1.823e-10        1.381e-10      
                    25.0000        1               
  2.550e-06        9.314e-11        1.835e-10        1.383e-10      
                    25.0000        1               
  2.560e-06        9.131e-11        1.775e-10        1.344e-10      
                    25.0000        1               
  2.570e-06        9.409e-11        1.777e-10        1.359e-10      
                    25.0000        1               
  2.580e-06        9.426e-11        1.834e-10        1.388e-10      
                    25.0000        1               
  2.590e-06        9.188e-11        1.815e-10        1.367e-10      
                    25.0000        1               
  2.600e-06        9.109e-11        1.810e-10        1.360e-10      
                    25.0000        1               
  2.610e-06        9.484e-11        1.827e-10        1.388e-10      
                    25.0000        1               
  2.620e-06        9.221e-11        1.844e-10        1.383e-10      
                    25.0000        1               
  2.630e-06        9.089e-11        1.838e-10        1.374e-10      
                    25.0000        1               
  2.640e-06        9.431e-11        1.841e-10        1.392e-10      
                    25.0000        1               
  2.650e-06        9.405e-11        1.846e-10        1.393e-10      
                    25.0000        1               
  2.660e-06        9.083e-11        1.792e-10        1.350e-10      
                    25.0000        1               
  2.670e-06        9.067e-11        1.825e-10        1.366e-10      
                    25.0000        1               
  2.680e-06        9.542e-11        1.792e-10        1.373e-10      
                    25.0000        1               
  2.690e-06        9.059e-11        1.794e-10        1.350e-10      
                    25.0000        1               
  2.700e-06        9.053e-11        1.849e-10        1.377e-10      
                    25.0000        1               
  2.710e-06        9.390e-11        1.854e-10        1.397e-10      
                    25.0000        1               
  2.720e-06        9.063e-11        1.820e-10        1.363e-10      
                    25.0000        1               
  2.730e-06        9.492e-11        1.835e-10        1.392e-10      
                    25.0000        1               
  2.740e-06        9.025e-11        1.855e-10        1.379e-10      
                    25.0000        1               
  2.750e-06        9.020e-11        1.838e-10        1.370e-10      
                    25.0000        1               
  2.760e-06        9.026e-11        1.861e-10        1.382e-10      
                    25.0000        1               
  2.770e-06        9.011e-11        1.808e-10        1.355e-10      
                    25.0000        1               
  2.780e-06        9.004e-11        1.864e-10        1.382e-10      
                    25.0000        1               
  2.790e-06        9.001e-11        1.865e-10        1.383e-10      
                    25.0000        1               
  2.800e-06        8.998e-11        1.866e-10        1.383e-10      
                    25.0000        1               
  2.810e-06        8.994e-11        1.871e-10        1.385e-10      
                    25.0000        1               
  2.820e-06        8.981e-11        1.816e-10        1.357e-10      
                    25.0000        1               
  2.830e-06        8.990e-11        1.819e-10        1.359e-10      
                    25.0000        1               
  2.840e-06        8.991e-11        1.867e-10        1.383e-10      
                    25.0000        1               
  2.850e-06        9.040e-11        1.862e-10        1.383e-10      
                    25.0000        1               
  2.860e-06        9.009e-11        1.824e-10        1.362e-10      
                    25.0000        1               
  2.870e-06        9.409e-11        1.857e-10        1.399e-10      
                    25.0000        1               
  2.880e-06        9.401e-11        1.859e-10        1.399e-10      
                    25.0000        1               
  2.890e-06        9.393e-11        1.827e-10        1.383e-10      
                    25.0000        1               
  2.900e-06        9.386e-11        1.830e-10        1.384e-10      
                    25.0000        1               
  2.910e-06        9.381e-11        1.863e-10        1.401e-10      
                    25.0000        1               
  2.920e-06        9.377e-11        1.865e-10        1.401e-10      
                    25.0000        1               
  2.930e-06        9.372e-11        1.867e-10        1.402e-10      
                    25.0000        1               
  2.940e-06        8.942e-11        1.886e-10        1.390e-10      
                    25.0000        1               
  2.950e-06        8.931e-11        1.882e-10        1.388e-10      
                    25.0000        1               
  2.960e-06        9.354e-11        1.872e-10        1.404e-10      
                    25.0000        1               
  2.970e-06        9.348e-11        1.873e-10        1.404e-10      
                    25.0000        1               
  2.980e-06        9.342e-11        1.875e-10        1.405e-10      
                    25.0000        1               
  2.990e-06        8.923e-11        1.849e-10        1.370e-10      
                    25.0000        1               
  3.000e-06        9.331e-11        1.877e-10        1.405e-10      
                    25.0000        1               
  3.010e-06        9.325e-11        1.862e-10        1.397e-10      
                    25.0000        1               
  3.020e-06        9.319e-11        1.882e-10        1.407e-10      
                    25.0000        1               
  3.030e-06        9.313e-11        1.883e-10        1.407e-10      
                    25.0000        1               
  3.040e-06        9.306e-11        1.885e-10        1.408e-10      
                    25.0000        1               
  3.050e-06        9.299e-11        1.868e-10        1.399e-10      
                    25.0000        1               
  3.060e-06        9.291e-11        1.888e-10        1.409e-10      
                    25.0000        1               
  3.070e-06        8.894e-11        1.900e-10        1.395e-10      
                    25.0000        1               
  3.080e-06        9.249e-11        1.872e-10        1.398e-10      
                    25.0000        1               
  3.090e-06        9.278e-11        1.949e-10        1.438e-10      
                    25.0000        1               
  3.100e-06        9.276e-11        1.895e-10        1.411e-10      
                    25.0000        1               
  3.110e-06        9.206e-11        1.951e-10        1.436e-10      
                    25.0000        1               
  3.120e-06        9.253e-11        1.952e-10        1.439e-10      
                    25.0000        1               
  3.130e-06        9.264e-11        1.893e-10        1.410e-10      
                    25.0000        1               
  3.140e-06        8.862e-11        1.879e-10        1.383e-10      
                    25.0000        1               
  3.150e-06        8.859e-11        1.874e-10        1.380e-10      
                    25.0000        1               
  3.160e-06        9.248e-11        1.897e-10        1.411e-10      
                    25.0000        1               
  3.170e-06        9.245e-11        1.898e-10        1.411e-10      
                    25.0000        1               
  3.180e-06        9.239e-11        1.900e-10        1.412e-10      
                    25.0000        1               
  3.190e-06        9.235e-11        1.901e-10        1.412e-10      
                    25.0000        1               
  3.200e-06        9.227e-11        1.902e-10        1.412e-10      
                    25.0000        1               
  3.210e-06        9.227e-11        1.904e-10        1.413e-10      
                    25.0000        1               
  3.220e-06        9.221e-11        1.905e-10        1.414e-10      
                    25.0000        1               
  3.230e-06        9.206e-11        1.906e-10        1.413e-10      
                    25.0000        1               
  3.240e-06        8.951e-11        1.927e-10        1.411e-10      
                    25.0000        1               
  3.250e-06        9.159e-11        1.920e-10        1.418e-10      
                    25.0000        1               
  3.260e-06        9.172e-11        1.903e-10        1.410e-10      
                    25.0000        1               
  3.270e-06        9.189e-11        1.924e-10        1.421e-10      
                    25.0000        1               
  3.280e-06        9.197e-11        1.926e-10        1.423e-10      
                    25.0000        1               
  3.290e-06        8.950e-11        1.936e-10        1.415e-10      
                    25.0000        1               
  3.300e-06        9.191e-11        1.954e-10        1.437e-10      
                    25.0000        1               
  3.310e-06        9.170e-11        1.931e-10        1.424e-10      
                    25.0000        1               
  3.320e-06        9.169e-11        1.917e-10        1.417e-10      
                    25.0000        1               
  3.330e-06        9.163e-11        1.934e-10        1.425e-10      
                    25.0000        1               
  3.340e-06        9.105e-11        1.923e-10        1.417e-10      
                    25.0000        1               
  3.350e-06        9.082e-11        1.913e-10        1.410e-10      
                    25.0000        1               
  3.360e-06        9.059e-11        1.946e-10        1.426e-10      
                    25.0000        1               
  3.370e-06        9.036e-11        1.948e-10        1.426e-10      
                    25.0000        1               
  3.380e-06        9.161e-11        1.943e-10        1.430e-10      
                    25.0000        1               
  3.390e-06        9.104e-11        1.951e-10        1.431e-10      
                    25.0000        1               
  3.400e-06        9.155e-11        1.947e-10        1.431e-10      
                    25.0000        1               
  3.410e-06        8.951e-11        1.938e-10        1.416e-10      
                    25.0000        1               
  3.420e-06        8.936e-11        1.955e-10        1.424e-10      
                    25.0000        1               
  3.430e-06        8.955e-11        1.940e-10        1.418e-10      
                    25.0000        1               
  3.440e-06        9.109e-11        1.944e-10        1.427e-10      
                    25.0000        1               
  3.450e-06        9.138e-11        1.998e-10        1.456e-10      
                    25.0000        1               
  3.460e-06        9.021e-11        1.952e-10        1.427e-10      
                    25.0000        1               
  3.470e-06        9.130e-11        2.001e-10        1.457e-10      
                    25.0000        1               
  3.480e-06        9.124e-11        1.984e-10        1.448e-10      
                    25.0000        1               
  3.490e-06        9.126e-11        2.004e-10        1.458e-10      
                    25.0000        1               
  3.500e-06        9.085e-11        1.989e-10        1.449e-10      
                    25.0000        1               
  3.510e-06        8.905e-11        1.936e-10        1.413e-10      
                    25.0000        1               
  3.520e-06        9.116e-11        2.008e-10        1.460e-10      
                    25.0000        1               
  3.530e-06        9.116e-11        1.967e-10        1.439e-10      
                    25.0000        1               
  3.540e-06        9.067e-11        1.968e-10        1.437e-10      
                    25.0000        1               
  3.550e-06        9.101e-11        1.994e-10        1.452e-10      
                    25.0000        1               
  3.560e-06        9.099e-11        1.947e-10        1.429e-10      
                    25.0000        1               
  3.570e-06        9.077e-11        1.977e-10        1.442e-10      
                    25.0000        1               
  3.580e-06        9.080e-11        1.979e-10        1.443e-10      
                    25.0000        1               
  3.590e-06        9.063e-11        1.959e-10        1.433e-10      
                    25.0000        1               
  3.600e-06        9.040e-11        2.020e-10        1.462e-10      
                    25.0000        1               
  3.610e-06        9.062e-11        1.961e-10        1.434e-10      
                    25.0000        1               
  3.620e-06        9.068e-11        2.007e-10        1.457e-10      
                    25.0000        1               
  3.630e-06        9.055e-11        1.977e-10        1.441e-10      
                    25.0000        1               
  3.640e-06        9.088e-11        2.010e-10        1.460e-10      
                    25.0000        1               
  3.650e-06        9.086e-11        1.984e-10        1.446e-10      
                    25.0000        1               
  3.660e-06        9.080e-11        1.956e-10        1.432e-10      
                    25.0000        1               
  3.670e-06        9.072e-11        1.992e-10        1.450e-10      
                    25.0000        1               
  3.680e-06        9.076e-11        1.966e-10        1.437e-10      
                    25.0000        1               
  3.690e-06        9.063e-11        2.018e-10        1.462e-10      
                    25.0000        1               
  3.700e-06        9.075e-11        1.970e-10        1.439e-10      
                    25.0000        1               
  3.710e-06        9.072e-11        1.993e-10        1.450e-10      
                    25.0000        1               
  3.720e-06        9.046e-11        1.991e-10        1.448e-10      
                    25.0000        1               
  3.730e-06        9.037e-11        2.020e-10        1.462e-10      
                    25.0000        1               
  3.740e-06        8.963e-11        1.992e-10        1.444e-10      
                    25.0000        1               
  3.750e-06        8.981e-11        1.966e-10        1.432e-10      
                    25.0000        1               
  3.760e-06        9.050e-11        2.021e-10        1.463e-10      
                    25.0000        1               
  3.770e-06        8.993e-11        2.001e-10        1.450e-10      
                    25.0000        1               
  3.780e-06        8.949e-11        2.040e-10        1.468e-10      
                    25.0000        1               
  3.790e-06        9.032e-11        2.004e-10        1.454e-10      
                    25.0000        1               
  3.800e-06        9.035e-11        2.006e-10        1.455e-10      
                    25.0000        1               
  3.810e-06        9.002e-11        2.007e-10        1.454e-10      
                    25.0000        1               
  3.820e-06        8.994e-11        2.015e-10        1.457e-10      
                    25.0000        1               
  3.830e-06        8.917e-11        1.998e-10        1.445e-10      
                    25.0000        1               
  3.840e-06        8.954e-11        1.984e-10        1.440e-10      
                    25.0000        1               
  3.850e-06        8.931e-11        2.020e-10        1.456e-10      
                    25.0000        1               
  3.860e-06        8.925e-11        2.021e-10        1.457e-10      
                    25.0000        1               
  3.870e-06        8.941e-11        2.043e-10        1.469e-10      
                    25.0000        1               
  3.880e-06        8.982e-11        1.995e-10        1.446e-10      
                    25.0000        1               
  3.890e-06        9.042e-11        2.011e-10        1.458e-10      
                    25.0000        1               
  3.900e-06        8.986e-11        2.019e-10        1.459e-10      
                    25.0000        1               
  3.910e-06        8.912e-11        2.027e-10        1.459e-10      
                    25.0000        1               
  3.920e-06        8.881e-11        2.038e-10        1.463e-10      
                    25.0000        1               
  3.930e-06        8.992e-11        1.994e-10        1.446e-10      
                    25.0000        1               
  3.940e-06        9.025e-11        2.011e-10        1.457e-10      
                    25.0000        1               
  3.950e-06        8.925e-11        2.052e-10        1.472e-10      
                    25.0000        1               
  3.960e-06        8.954e-11        2.056e-10        1.476e-10      
                    25.0000        1               
  3.970e-06        8.907e-11        2.036e-10        1.463e-10      
                    25.0000        1               
  3.980e-06        8.953e-11        2.059e-10        1.477e-10      
                    25.0000        1               
  3.990e-06        8.957e-11        2.060e-10        1.478e-10      
                    25.0000        1               
  4.000e-06        8.953e-11        2.062e-10        1.478e-10      
                    25.0000        1               
  4.010e-06        8.953e-11        2.063e-10        1.479e-10      
                    25.0000        1               
  4.020e-06        8.950e-11        2.065e-10        1.480e-10      
                    25.0000        1               
  4.030e-06        8.895e-11        2.031e-10        1.460e-10      
                    25.0000        1               
  4.040e-06        8.945e-11        2.067e-10        1.481e-10      
                    25.0000        1               
  4.050e-06        8.939e-11        2.050e-10        1.472e-10      
                    25.0000        1               
  4.060e-06        8.988e-11        2.023e-10        1.461e-10      
                    25.0000        1               
  4.070e-06        8.954e-11        2.081e-10        1.488e-10      
                    25.0000        1               
  4.080e-06        8.941e-11        2.074e-10        1.484e-10      
                    25.0000        1               
  4.090e-06        8.957e-11        2.093e-10        1.494e-10      
                    25.0000        1               
  4.100e-06        8.943e-11        2.074e-10        1.484e-10      
                    25.0000        1               
  4.110e-06        8.946e-11        2.069e-10        1.482e-10      
                    25.0000        1               
  4.120e-06        8.951e-11        2.067e-10        1.481e-10      
                    25.0000        1               
  4.130e-06        8.950e-11        2.055e-10        1.475e-10      
                    25.0000        1               
  4.140e-06        8.934e-11        2.040e-10        1.467e-10      
                    25.0000        1               
  4.150e-06        8.938e-11        2.084e-10        1.489e-10      
                    25.0000        1               
  4.160e-06        8.965e-11        2.035e-10        1.466e-10      
                    25.0000        1               
  4.170e-06        8.949e-11        2.031e-10        1.463e-10      
                    25.0000        1               
  4.180e-06        8.903e-11        2.050e-10        1.470e-10      
                    25.0000        1               
  4.190e-06        8.974e-11        2.063e-10        1.480e-10      
                    25.0000        1               
  4.200e-06        8.976e-11        2.069e-10        1.483e-10      
                    25.0000        1               
  4.210e-06        8.920e-11        2.086e-10        1.489e-10      
                    25.0000        1               
  4.220e-06        8.989e-11        2.045e-10        1.472e-10      
                    25.0000        1               
  4.230e-06        9.020e-11        2.069e-10        1.486e-10      
                    25.0000        1               
  4.240e-06        9.020e-11        2.077e-10        1.490e-10      
                    25.0000        1               
  4.250e-06        8.999e-11        2.082e-10        1.491e-10      
                    25.0000        1               
  4.260e-06        8.918e-11        2.061e-10        1.476e-10      
                    25.0000        1               
  4.270e-06        8.982e-11        2.081e-10        1.490e-10      
                    25.0000        1               
  4.280e-06        8.936e-11        2.064e-10        1.479e-10      
                    25.0000        1               
  4.290e-06        8.958e-11        2.085e-10        1.490e-10      
                    25.0000        1               
  4.300e-06        8.887e-11        2.067e-10        1.478e-10      
                    25.0000        1               
  4.310e-06        8.937e-11        2.088e-10        1.491e-10      
                    25.0000        1               
  4.320e-06        8.900e-11        2.071e-10        1.481e-10      
                    25.0000        1               
  4.330e-06        8.969e-11        2.127e-10        1.512e-10      
                    25.0000        1               
  4.340e-06        8.957e-11        2.113e-10        1.504e-10      
                    25.0000        1               
  4.350e-06        8.896e-11        2.076e-10        1.483e-10      
                    25.0000        1               
  4.360e-06        8.945e-11        2.092e-10        1.493e-10      
                    25.0000        1               
  4.370e-06        8.957e-11        2.101e-10        1.498e-10      
                    25.0000        1               
  4.380e-06        9.025e-11        2.139e-10        1.521e-10      
                    25.0000        1               
  4.390e-06        9.026e-11        2.139e-10        1.521e-10      
                    25.0000        1               
  4.400e-06        8.933e-11        2.092e-10        1.492e-10      
                    25.0000        1               
  4.410e-06        9.027e-11        2.143e-10        1.523e-10      
                    25.0000        1               
  4.420e-06        9.028e-11        2.133e-10        1.518e-10      
                    25.0000        1               
  4.430e-06        9.022e-11        2.125e-10        1.514e-10      
                    25.0000        1               
  4.440e-06        8.980e-11        2.112e-10        1.505e-10      
                    25.0000        1               
  4.450e-06        9.024e-11        2.106e-10        1.504e-10      
                    25.0000        1               
  4.460e-06        9.010e-11        2.108e-10        1.505e-10      
                    25.0000        1               
  4.470e-06        9.010e-11        2.113e-10        1.507e-10      
                    25.0000        1               
  4.480e-06        9.015e-11        2.114e-10        1.508e-10      
                    25.0000        1               
  4.490e-06        9.018e-11        2.112e-10        1.507e-10      
                    25.0000        1               
  4.500e-06        9.021e-11        2.110e-10        1.506e-10      
                    25.0000        1               
  4.510e-06        9.033e-11        2.123e-10        1.513e-10      
                    25.0000        1               
  4.520e-06        8.985e-11        2.093e-10        1.496e-10      
                    25.0000        1               
  4.530e-06        8.982e-11        2.094e-10        1.496e-10      
                    25.0000        1               
  4.540e-06        8.925e-11        2.164e-10        1.528e-10      
                    25.0000        1               
  4.550e-06        9.010e-11        2.140e-10        1.521e-10      
                    25.0000        1               
  4.560e-06        8.969e-11        2.088e-10        1.492e-10      
                    25.0000        1               
  4.570e-06        8.960e-11        2.149e-10        1.523e-10      
                    25.0000        1               
  4.580e-06        8.972e-11        2.097e-10        1.497e-10      
                    25.0000        1               
  4.590e-06        9.025e-11        2.125e-10        1.514e-10      
                    25.0000        1               
  4.600e-06        8.991e-11        2.106e-10        1.502e-10      
                    25.0000        1               
  4.610e-06        8.972e-11        2.131e-10        1.514e-10      
                    25.0000        1               
  4.620e-06        8.920e-11        2.157e-10        1.524e-10      
                    25.0000        1               
  4.630e-06        9.041e-11        2.105e-10        1.504e-10      
                    25.0000        1               
  4.640e-06        8.946e-11        2.159e-10        1.527e-10      
                    25.0000        1               
  4.650e-06        9.034e-11        2.134e-10        1.519e-10      
                    25.0000        1               
  4.660e-06        9.033e-11        2.135e-10        1.519e-10      
                    25.0000        1               
  4.670e-06        9.037e-11        2.137e-10        1.520e-10      
                    25.0000        1               
  4.680e-06        9.042e-11        2.146e-10        1.525e-10      
                    25.0000        1               
  4.690e-06        9.042e-11        2.147e-10        1.526e-10      
                    25.0000        1               
  4.700e-06        9.040e-11        2.166e-10        1.535e-10      
                    25.0000        1               
  4.710e-06        9.039e-11        2.143e-10        1.523e-10      
                    25.0000        1               
  4.720e-06        8.916e-11        2.135e-10        1.513e-10      
                    25.0000        1               
  4.730e-06        8.991e-11        2.136e-10        1.517e-10      
                    25.0000        1               
  4.740e-06        9.058e-11        2.153e-10        1.529e-10      
                    25.0000        1               
  4.750e-06        8.973e-11        2.121e-10        1.509e-10      
                    25.0000        1               
  4.760e-06        8.916e-11        2.140e-10        1.516e-10      
                    25.0000        1               
  4.770e-06        8.972e-11        2.123e-10        1.510e-10      
                    25.0000        1               
  4.780e-06        9.053e-11        2.189e-10        1.547e-10      
                    25.0000        1               
  4.790e-06        8.922e-11        2.149e-10        1.520e-10      
                    25.0000        1               
  4.800e-06        8.986e-11        2.169e-10        1.534e-10      
                    25.0000        1               
  4.810e-06        8.957e-11        2.182e-10        1.539e-10      
                    25.0000        1               
  4.820e-06        8.925e-11        2.162e-10        1.527e-10      
                    25.0000        1               
  4.830e-06        9.059e-11        2.158e-10        1.532e-10      
                    25.0000        1               
  4.840e-06        9.021e-11        2.176e-10        1.539e-10      
                    25.0000        1               
  4.850e-06        9.059e-11        2.205e-10        1.556e-10      
                    25.0000        1               
  4.860e-06        8.947e-11        2.192e-10        1.544e-10      
                    25.0000        1               
  4.870e-06        8.935e-11        2.162e-10        1.528e-10      
                    25.0000        1               
  4.880e-06        9.061e-11        2.194e-10        1.550e-10      
                    25.0000        1               
  4.890e-06        8.985e-11        2.158e-10        1.528e-10      
                    25.0000        1               
  4.900e-06        8.994e-11        2.199e-10        1.549e-10      
                    25.0000        1               
  4.910e-06        8.948e-11        2.197e-10        1.546e-10      
                    25.0000        1               
  4.920e-06        9.051e-11        2.176e-10        1.540e-10      
                    25.0000        1               
  4.930e-06        9.084e-11        2.171e-10        1.540e-10      
                    25.0000        1               
  4.940e-06        9.084e-11        2.171e-10        1.539e-10      
                    25.0000        1               
  4.950e-06        9.073e-11        2.158e-10        1.533e-10      
                    25.0000        1               
  4.960e-06        9.071e-11        2.157e-10        1.532e-10      
                    25.0000        1               
  4.970e-06        9.103e-11        2.153e-10        1.532e-10      
                    25.0000        1               
  4.980e-06        9.077e-11        2.157e-10        1.532e-10      
                    25.0000        1               
  4.990e-06        8.944e-11        2.179e-10        1.537e-10      
                    25.0000        1               
  5.000e-06        8.957e-11        2.211e-10        1.553e-10      
                    25.0000        1               
  5.010e-06        9.089e-11        2.190e-10        1.550e-10      
                    25.0000        1               
  5.020e-06        8.948e-11        2.184e-10        1.539e-10      
                    25.0000        1               
  5.030e-06        9.079e-11        2.208e-10        1.558e-10      
                    25.0000        1               
  5.040e-06        8.963e-11        2.218e-10        1.557e-10      
                    25.0000        1               
  5.050e-06        9.066e-11        2.187e-10        1.547e-10      
                    25.0000        1               
  5.060e-06        9.123e-11        2.223e-10        1.568e-10      
                    25.0000        1               
  5.070e-06        9.129e-11        2.201e-10        1.557e-10      
                    25.0000        1               
  5.080e-06        9.153e-11        2.181e-10        1.548e-10      
                    25.0000        1               
  5.090e-06        9.052e-11        2.217e-10        1.561e-10      
                    25.0000        1               
  5.100e-06        9.160e-11        2.181e-10        1.548e-10      
                    25.0000        1               
  5.110e-06        9.134e-11        2.221e-10        1.567e-10      
                    25.0000        1               
  5.120e-06        9.105e-11        2.208e-10        1.559e-10      
                    25.0000        1               
  5.130e-06        9.096e-11        2.210e-10        1.560e-10      
                    25.0000        1               
  5.140e-06        9.114e-11        2.219e-10        1.565e-10      
                    25.0000        1               
  5.150e-06        9.073e-11        2.233e-10        1.570e-10      
                    25.0000        1               
  5.160e-06        9.078e-11        2.236e-10        1.572e-10      
                    25.0000        1               
  5.170e-06        9.165e-11        2.196e-10        1.556e-10      
                    25.0000        1               
  5.180e-06        9.111e-11        2.238e-10        1.575e-10      
                    25.0000        1               
  5.190e-06        9.115e-11        2.240e-10        1.576e-10      
                    25.0000        1               
  5.200e-06        9.157e-11        2.192e-10        1.554e-10      
                    25.0000        1               
  5.210e-06        9.095e-11        2.200e-10        1.555e-10      
                    25.0000        1               
  5.220e-06        9.125e-11        2.246e-10        1.579e-10      
                    25.0000        1               
  5.230e-06        9.125e-11        2.252e-10        1.582e-10      
                    25.0000        1               
  5.240e-06        9.158e-11        2.229e-10        1.572e-10      
                    25.0000        1               
  5.250e-06        9.166e-11        2.250e-10        1.583e-10      
                    25.0000        1               
  5.260e-06        9.018e-11        2.228e-10        1.565e-10      
                    25.0000        1               
  5.270e-06        9.118e-11        2.254e-10        1.583e-10      
                    25.0000        1               
  5.280e-06        9.020e-11        2.266e-10        1.584e-10      
                    25.0000        1               
  5.290e-06        9.182e-11        2.204e-10        1.561e-10      
                    25.0000        1               
  5.300e-06        9.167e-11        2.245e-10        1.581e-10      
                    25.0000        1               
  5.310e-06        9.149e-11        2.258e-10        1.587e-10      
                    25.0000        1               
  5.320e-06        9.198e-11        2.220e-10        1.570e-10      
                    25.0000        1               
  5.330e-06        9.175e-11        2.232e-10        1.575e-10      
                    25.0000        1               
  5.340e-06        9.017e-11        2.276e-10        1.589e-10      
                    25.0000        1               
  5.350e-06        9.138e-11        2.289e-10        1.601e-10      
                    25.0000        1               
  5.360e-06        9.138e-11        2.273e-10        1.593e-10      
                    25.0000        1               
  5.370e-06        9.150e-11        2.267e-10        1.591e-10      
                    25.0000        1               
  5.380e-06        9.133e-11        2.276e-10        1.595e-10      
                    25.0000        1               
  5.390e-06        9.213e-11        2.283e-10        1.602e-10      
                    25.0000        1               
  5.400e-06        9.250e-11        2.270e-10        1.598e-10      
                    25.0000        1               
  5.410e-06        9.032e-11        2.280e-10        1.592e-10      
                    25.0000        1               
  5.420e-06        9.236e-11        2.262e-10        1.593e-10      
                    25.0000        1               
  5.430e-06        9.216e-11        2.302e-10        1.612e-10      
                    25.0000        1               
  5.440e-06        9.261e-11        2.254e-10        1.590e-10      
                    25.0000        1               
  5.450e-06        9.124e-11        2.280e-10        1.596e-10      
                    25.0000        1               
  5.460e-06        9.248e-11        2.263e-10        1.594e-10      
                    25.0000        1               
  5.470e-06        9.255e-11        2.282e-10        1.604e-10      
                    25.0000        1               
  5.480e-06        9.266e-11        2.285e-10        1.606e-10      
                    25.0000        1               
  5.490e-06        9.042e-11        2.309e-10        1.607e-10      
                    25.0000        1               
  5.500e-06        9.147e-11        2.287e-10        1.601e-10      
                    25.0000        1               
  5.510e-06        9.073e-11        2.256e-10        1.582e-10      
                    25.0000        1               
  5.520e-06        9.272e-11        2.286e-10        1.607e-10      
                    25.0000        1               
  5.530e-06        9.048e-11        2.269e-10        1.587e-10      
                    25.0000        1               
  5.540e-06        9.053e-11        2.268e-10        1.587e-10      
                    25.0000        1               
  5.550e-06        9.165e-11        2.280e-10        1.598e-10      
                    25.0000        1               
  5.560e-06        9.170e-11        2.279e-10        1.598e-10      
                    25.0000        1               
  5.570e-06        9.221e-11        2.287e-10        1.604e-10      
                    25.0000        1               
  5.580e-06        9.225e-11        2.273e-10        1.598e-10      
                    25.0000        1               
  5.590e-06        9.274e-11        2.284e-10        1.606e-10      
                    25.0000        1               
  5.600e-06        9.185e-11        2.283e-10        1.601e-10      
                    25.0000        1               
  5.610e-06        9.101e-11        2.291e-10        1.600e-10      
                    25.0000        1               
  5.620e-06        9.245e-11        2.328e-10        1.626e-10      
                    25.0000        1               
  5.630e-06        9.288e-11        2.259e-10        1.594e-10      
                    25.0000        1               
  5.640e-06        9.255e-11        2.292e-10        1.609e-10      
                    25.0000        1               
  5.650e-06        9.294e-11        2.302e-10        1.616e-10      
                    25.0000        1               
  5.660e-06        9.275e-11        2.269e-10        1.598e-10      
                    25.0000        1               
  5.670e-06        9.218e-11        2.308e-10        1.615e-10      
                    25.0000        1               
  5.680e-06        9.302e-11        2.299e-10        1.615e-10      
                    25.0000        1               
  5.690e-06        9.079e-11        2.268e-10        1.588e-10      
                    25.0000        1               
  5.700e-06        9.309e-11        2.320e-10        1.625e-10      
                    25.0000        1               
  5.710e-06        9.276e-11        2.307e-10        1.618e-10      
                    25.0000        1               
  5.720e-06        9.271e-11        2.320e-10        1.624e-10      
                    25.0000        1               
  5.730e-06        9.275e-11        2.345e-10        1.636e-10      
                    25.0000        1               
  5.740e-06        9.086e-11        2.311e-10        1.610e-10      
                    25.0000        1               
  5.750e-06        9.341e-11        2.330e-10        1.632e-10      
                    25.0000        1               
  5.760e-06        9.306e-11        2.312e-10        1.621e-10      
                    25.0000        1               
  5.770e-06        9.115e-11        2.286e-10        1.599e-10      
                    25.0000        1               
  5.780e-06        9.329e-11        2.330e-10        1.631e-10      
                    25.0000        1               
  5.790e-06        9.087e-11        2.299e-10        1.604e-10      
                    25.0000        1               
  5.800e-06        9.315e-11        2.333e-10        1.632e-10      
                    25.0000        1               
  5.810e-06        9.311e-11        2.334e-10        1.633e-10      
                    25.0000        1               
  5.820e-06        9.096e-11        2.305e-10        1.607e-10      
                    25.0000        1               
  5.830e-06        9.310e-11        2.297e-10        1.614e-10      
                    25.0000        1               
  5.840e-06        9.258e-11        2.339e-10        1.633e-10      
                    25.0000        1               
  5.850e-06        9.181e-11        2.369e-10        1.644e-10      
                    25.0000        1               
  5.860e-06        9.242e-11        2.321e-10        1.623e-10      
                    25.0000        1               
  5.870e-06        9.097e-11        2.332e-10        1.621e-10      
                    25.0000        1               
  5.880e-06        9.296e-11        2.309e-10        1.619e-10      
                    25.0000        1               
  5.890e-06        9.347e-11        2.346e-10        1.640e-10      
                    25.0000        1               
  5.900e-06        9.279e-11        2.341e-10        1.635e-10      
                    25.0000        1               
  5.910e-06        9.289e-11        2.350e-10        1.639e-10      
                    25.0000        1               
  5.920e-06        9.350e-11        2.351e-10        1.643e-10      
                    25.0000        1               
  5.930e-06        9.353e-11        2.347e-10        1.641e-10      
                    25.0000        1               
  5.940e-06        9.340e-11        2.386e-10        1.660e-10      
                    25.0000        1               
  5.950e-06        9.348e-11        2.354e-10        1.644e-10      
                    25.0000        1               
  5.960e-06        9.121e-11        2.326e-10        1.619e-10      
                    25.0000        1               
  5.970e-06        9.365e-11        2.340e-10        1.638e-10      
                    25.0000        1               
  5.980e-06        9.177e-11        2.329e-10        1.624e-10      
                    25.0000        1               
  5.990e-06        9.440e-11        2.323e-10        1.634e-10      
                    25.0000        1               
  6.000e-06        9.361e-11        2.363e-10        1.650e-10      
                    25.0000        1               
  6.010e-06        9.388e-11        2.351e-10        1.645e-10      
                    25.0000        1               
  6.020e-06        9.372e-11        2.366e-10        1.652e-10      
                    25.0000        1               
  6.030e-06        9.246e-11        2.386e-10        1.655e-10      
                    25.0000        1               
  6.040e-06        9.137e-11        2.389e-10        1.651e-10      
                    25.0000        1               
  6.050e-06        9.372e-11        2.371e-10        1.654e-10      
                    25.0000        1               
  6.060e-06        9.396e-11        2.346e-10        1.643e-10      
                    25.0000        1               
  6.070e-06        9.409e-11        2.357e-10        1.649e-10      
                    25.0000        1               
  6.080e-06        9.380e-11        2.375e-10        1.657e-10      
                    25.0000        1               
  6.090e-06        9.478e-11        2.386e-10        1.667e-10      
                    25.0000        1               
  6.100e-06        9.389e-11        2.370e-10        1.654e-10      
                    25.0000        1               
  6.110e-06        9.252e-11        2.404e-10        1.665e-10      
                    25.0000        1               
  6.120e-06        9.395e-11        2.373e-10        1.656e-10      
                    25.0000        1               
  6.130e-06        9.102e-11        2.386e-10        1.648e-10      
                    25.0000        1               
  6.140e-06        9.284e-11        2.391e-10        1.660e-10      
                    25.0000        1               
  6.150e-06        9.414e-11        2.355e-10        1.648e-10      
                    25.0000        1               
  6.160e-06        9.380e-11        2.385e-10        1.661e-10      
                    25.0000        1               
  6.170e-06        9.169e-11        2.423e-10        1.670e-10      
                    25.0000        1               
  6.180e-06        9.378e-11        2.399e-10        1.668e-10      
                    25.0000        1               
  6.190e-06        9.286e-11        2.392e-10        1.660e-10      
                    25.0000        1               
  6.200e-06        9.173e-11        2.428e-10        1.673e-10      
                    25.0000        1               
  6.210e-06        9.228e-11        2.420e-10        1.671e-10      
                    25.0000        1               
  6.220e-06        9.429e-11        2.390e-10        1.667e-10      
                    25.0000        1               
  6.230e-06        9.393e-11        2.398e-10        1.669e-10      
                    25.0000        1               
  6.240e-06        9.442e-11        2.394e-10        1.669e-10      
                    25.0000        1               
  6.250e-06        9.400e-11        2.402e-10        1.671e-10      
                    25.0000        1               
  6.260e-06        9.417e-11        2.403e-10        1.672e-10      
                    25.0000        1               
  6.270e-06        9.389e-11        2.405e-10        1.672e-10      
                    25.0000        1               
  6.280e-06        9.489e-11        2.374e-10        1.662e-10      
                    25.0000        1               
  6.290e-06        9.201e-11        2.422e-10        1.671e-10      
                    25.0000        1               
  6.300e-06        9.388e-11        2.409e-10        1.674e-10      
                    25.0000        1               
  6.310e-06        9.440e-11        2.417e-10        1.680e-10      
                    25.0000        1               
  6.320e-06        9.334e-11        2.413e-10        1.673e-10      
                    25.0000        1               
  6.330e-06        9.339e-11        2.415e-10        1.674e-10      
                    25.0000        1               
  6.340e-06        9.439e-11        2.417e-10        1.680e-10      
                    25.0000        1               
  6.350e-06        9.325e-11        2.409e-10        1.671e-10      
                    25.0000        1               
  6.360e-06        9.496e-11        2.451e-10        1.700e-10      
                    25.0000        1               
  6.370e-06        9.355e-11        2.405e-10        1.670e-10      
                    25.0000        1               
  6.380e-06        9.485e-11        2.445e-10        1.697e-10      
                    25.0000        1               
  6.390e-06        9.437e-11        2.462e-10        1.703e-10      
                    25.0000        1               
  6.400e-06        9.400e-11        2.430e-10        1.685e-10      
                    25.0000        1               
  6.410e-06        9.331e-11        2.417e-10        1.675e-10      
                    25.0000        1               
  6.420e-06        9.400e-11        2.427e-10        1.684e-10      
                    25.0000        1               
  6.430e-06        9.490e-11        2.455e-10        1.702e-10      
                    25.0000        1               
  6.440e-06        9.404e-11        2.431e-10        1.686e-10      
                    25.0000        1               
  6.450e-06        9.387e-11        2.438e-10        1.688e-10      
                    25.0000        1               
  6.460e-06        9.420e-11        2.434e-10        1.688e-10      
                    25.0000        1               
  6.470e-06        9.392e-11        2.440e-10        1.689e-10      
                    25.0000        1               
  6.480e-06        9.397e-11        2.411e-10        1.675e-10      
                    25.0000        1               
  6.490e-06        9.625e-11        2.414e-10        1.688e-10      
                    25.0000        1               
  6.500e-06        9.350e-11        2.411e-10        1.673e-10      
                    25.0000        1               
  6.510e-06        9.423e-11        2.441e-10        1.692e-10      
                    25.0000        1               
  6.520e-06        9.354e-11        2.419e-10        1.677e-10      
                    25.0000        1               
  6.530e-06        9.289e-11        2.470e-10        1.700e-10      
                    25.0000        1               
  6.540e-06        9.334e-11        2.439e-10        1.686e-10      
                    25.0000        1               
  6.550e-06        9.417e-11        2.460e-10        1.701e-10      
                    25.0000        1               
  6.560e-06        9.419e-11        2.466e-10        1.704e-10      
                    25.0000        1               
  6.570e-06        9.422e-11        2.472e-10        1.707e-10      
                    25.0000        1               
  6.580e-06        9.367e-11        2.428e-10        1.683e-10      
                    25.0000        1               
  6.590e-06        9.300e-11        2.472e-10        1.701e-10      
                    25.0000        1               
  6.600e-06        9.414e-11        2.432e-10        1.687e-10      
                    25.0000        1               
  6.610e-06        9.330e-11        2.460e-10        1.697e-10      
                    25.0000        1               
  6.620e-06        9.331e-11        2.462e-10        1.697e-10      
                    25.0000        1               
  6.630e-06        9.377e-11        2.446e-10        1.692e-10      
                    25.0000        1               
  6.640e-06        9.381e-11        2.439e-10        1.689e-10      
                    25.0000        1               
  6.650e-06        9.445e-11        2.490e-10        1.717e-10      
                    25.0000        1               
  6.660e-06        9.388e-11        2.469e-10        1.704e-10      
                    25.0000        1               
  6.670e-06        9.610e-11        2.468e-10        1.714e-10      
                    25.0000        1               
  6.680e-06        9.441e-11        2.469e-10        1.707e-10      
                    25.0000        1               
  6.690e-06        9.441e-11        2.471e-10        1.708e-10      
                    25.0000        1               
  6.700e-06        9.444e-11        2.473e-10        1.709e-10      
                    25.0000        1               
  6.710e-06        9.444e-11        2.474e-10        1.709e-10      
                    25.0000        1               
  6.720e-06        9.443e-11        2.476e-10        1.710e-10      
                    25.0000        1               
  6.730e-06        9.445e-11        2.482e-10        1.713e-10      
                    25.0000        1               
  6.740e-06        9.444e-11        2.484e-10        1.714e-10      
                    25.0000        1               
  6.750e-06        9.444e-11        2.486e-10        1.715e-10      
                    25.0000        1               
  6.760e-06        9.441e-11        2.487e-10        1.716e-10      
                    25.0000        1               
  6.770e-06        9.441e-11        2.489e-10        1.717e-10      
                    25.0000        1               
  6.780e-06        9.478e-11        2.510e-10        1.729e-10      
                    25.0000        1               
  6.790e-06        9.393e-11        2.507e-10        1.723e-10      
                    25.0000        1               
  6.800e-06        9.403e-11        2.532e-10        1.736e-10      
                    25.0000        1               
  6.810e-06        9.442e-11        2.496e-10        1.720e-10      
                    25.0000        1               
  6.820e-06        9.443e-11        2.498e-10        1.721e-10      
                    25.0000        1               
  6.830e-06        9.467e-11        2.466e-10        1.706e-10      
                    25.0000        1               
[...]
  8.360e-06        9.949e-11        2.724e-10        1.859e-10      
                    25.0000        1               
  8.370e-06        9.952e-11        2.725e-10        1.860e-10      
                    25.0000        1               
  8.380e-06        9.955e-11        2.727e-10        1.861e-10      
                    25.0000        1               
  8.390e-06        9.958e-11        2.728e-10        1.862e-10      
                    25.0000        1               
  8.400e-06        9.961e-11        2.730e-10        1.863e-10      
                    25.0000        1               
  8.410e-06        1.006e-10        2.735e-10        1.871e-10      
                    25.0000        1               
  8.420e-06        9.987e-11        2.773e-10        1.886e-10      
                    25.0000        1               
  8.430e-06        1.000e-10        2.774e-10        1.887e-10      
                    25.0000        1               
  8.440e-06        1.001e-10        2.777e-10        1.889e-10      
                    25.0000        1               
  8.450e-06        1.004e-10        2.735e-10        1.869e-10      
                    25.0000        1               
  8.460e-06        1.007e-10        2.738e-10        1.872e-10      
                    25.0000        1               
  8.470e-06        1.002e-10        2.782e-10        1.892e-10      
                    25.0000        1               
  8.480e-06        1.002e-10        2.784e-10        1.893e-10      
                    25.0000        1               
  8.490e-06        1.009e-10        2.749e-10        1.879e-10      
                    25.0000        1               
  8.500e-06        1.013e-10        2.762e-10        1.887e-10      
                    25.0000        1               
  8.510e-06        1.013e-10        2.765e-10        1.889e-10      
                    25.0000        1               
  8.520e-06        1.014e-10        2.769e-10        1.892e-10      
                    25.0000        1               
  8.530e-06        1.014e-10        2.765e-10        1.889e-10      
                    25.0000        1               
  8.540e-06        1.013e-10        2.765e-10        1.889e-10      
                    25.0000        1               
  8.550e-06        1.013e-10        2.766e-10        1.889e-10      
                    25.0000        1               
  8.560e-06        1.008e-10        2.781e-10        1.895e-10      
                    25.0000        1               
  8.570e-06        1.013e-10        2.791e-10        1.902e-10      
                    25.0000        1               
  8.580e-06        1.012e-10        2.790e-10        1.901e-10      
                    25.0000        1               
  8.590e-06        1.010e-10        2.790e-10        1.900e-10      
                    25.0000        1               
  8.600e-06        1.004e-10        2.774e-10        1.889e-10      
                    25.0000        1               
  8.610e-06        1.018e-10        2.762e-10        1.890e-10      
                    25.0000        1               
  8.620e-06        1.018e-10        2.805e-10        1.912e-10      
                    25.0000        1               
  8.630e-06        1.012e-10        2.790e-10        1.901e-10      
                    25.0000        1               
  8.640e-06        1.017e-10        2.806e-10        1.911e-10      
                    25.0000        1               
  8.650e-06        1.020e-10        2.778e-10        1.899e-10      
                    25.0000        1               
  8.660e-06        1.007e-10        2.769e-10        1.888e-10      
                    25.0000        1               
  8.670e-06        1.008e-10        2.780e-10        1.894e-10      
                    25.0000        1               
  8.680e-06        1.009e-10        2.786e-10        1.898e-10      
                    25.0000        1               
  8.690e-06        1.010e-10        2.791e-10        1.901e-10      
                    25.0000        1               
  8.700e-06        1.011e-10        2.796e-10        1.904e-10      
                    25.0000        1               
  8.710e-06        1.012e-10        2.801e-10        1.906e-10      
                    25.0000        1               
  8.720e-06        1.012e-10        2.802e-10        1.907e-10      
                    25.0000        1               
  8.730e-06        1.013e-10        2.806e-10        1.909e-10      
                    25.0000        1               
  8.740e-06        1.022e-10        2.840e-10        1.931e-10      
                    25.0000        1               
  8.750e-06        1.023e-10        2.786e-10        1.904e-10      
                    25.0000        1               
  8.760e-06        1.025e-10        2.795e-10        1.910e-10      
                    25.0000        1               
  8.770e-06        1.010e-10        2.833e-10        1.922e-10      
                    25.0000        1               
  8.780e-06        1.024e-10        2.799e-10        1.912e-10      
                    25.0000        1               
  8.790e-06        1.024e-10        2.792e-10        1.908e-10      
                    25.0000        1               
  8.800e-06        1.025e-10        2.825e-10        1.925e-10      
                    25.0000        1               
  8.810e-06        1.010e-10        2.839e-10        1.925e-10      
                    25.0000        1               
  8.820e-06        1.026e-10        2.804e-10        1.915e-10      
                    25.0000        1               
  8.830e-06        1.013e-10        2.876e-10        1.944e-10      
                    25.0000        1               
  8.840e-06        1.013e-10        2.842e-10        1.927e-10      
                    25.0000        1               
  8.850e-06        1.013e-10        2.842e-10        1.927e-10      
                    25.0000        1               
  8.860e-06        1.014e-10        2.841e-10        1.928e-10      
                    25.0000        1               
  8.870e-06        1.024e-10        2.828e-10        1.926e-10      
                    25.0000        1               
  8.880e-06        1.025e-10        2.847e-10        1.936e-10      
                    25.0000        1               
  8.890e-06        1.013e-10        2.853e-10        1.933e-10      
                    25.0000        1               
  8.900e-06        1.015e-10        2.852e-10        1.933e-10      
                    25.0000        1               
  8.910e-06        1.018e-10        2.805e-10        1.912e-10      
                    25.0000        1               
  8.920e-06        1.028e-10        2.808e-10        1.918e-10      
                    25.0000        1               
  8.930e-06        1.043e-10        2.845e-10        1.944e-10      
                    25.0000        1               
  8.940e-06        1.023e-10        2.821e-10        1.922e-10      
                    25.0000        1               
  8.950e-06        1.016e-10        2.862e-10        1.939e-10      
                    25.0000        1               
  8.960e-06        1.030e-10        2.852e-10        1.941e-10      
                    25.0000        1               
  8.970e-06        1.030e-10        2.853e-10        1.942e-10      
                    25.0000        1               
  8.980e-06        1.025e-10        2.846e-10        1.935e-10      
                    25.0000        1               
  8.990e-06        1.015e-10        2.822e-10        1.919e-10      
                    25.0000        1               
  9.000e-06        1.022e-10        2.846e-10        1.934e-10      
                    25.0000        1               
  9.010e-06        1.015e-10        2.843e-10        1.929e-10      
                    25.0000        1               
  9.020e-06        1.016e-10        2.869e-10        1.943e-10      
                    25.0000        1               
  9.030e-06        1.020e-10        2.872e-10        1.946e-10      
                    25.0000        1               
  9.040e-06        1.020e-10        2.874e-10        1.947e-10      
                    25.0000        1               
  9.050e-06        1.026e-10        2.867e-10        1.946e-10      
                    25.0000        1               
  9.060e-06        1.033e-10        2.845e-10        1.939e-10      
                    25.0000        1               
  9.070e-06        1.025e-10        2.842e-10        1.933e-10      
                    25.0000        1               
  9.080e-06        1.028e-10        2.918e-10        1.973e-10      
                    25.0000        1               
  9.090e-06        1.029e-10        2.859e-10        1.944e-10      
                    25.0000        1               
  9.100e-06        1.018e-10        2.883e-10        1.951e-10      
                    25.0000        1               
  9.110e-06        1.032e-10        2.902e-10        1.967e-10      
                    25.0000        1               
  9.120e-06        1.023e-10        2.888e-10        1.956e-10      
                    25.0000        1               
  9.130e-06        1.024e-10        2.890e-10        1.957e-10      
                    25.0000        1               
  9.140e-06        1.024e-10        2.892e-10        1.958e-10      
                    25.0000        1               
  9.150e-06        1.030e-10        2.930e-10        1.980e-10      
                    25.0000        1               
  9.160e-06        1.036e-10        2.909e-10        1.972e-10      
                    25.0000        1               
  9.170e-06        1.026e-10        2.905e-10        1.966e-10      
                    25.0000        1               
  9.180e-06        1.026e-10        2.904e-10        1.965e-10      
                    25.0000        1               
  9.190e-06        1.026e-10        2.904e-10        1.965e-10      
                    25.0000        1               
  9.200e-06        1.030e-10        2.922e-10        1.976e-10      
                    25.0000        1               
  9.210e-06        1.037e-10        2.856e-10        1.946e-10      
                    25.0000        1               
  9.220e-06        1.033e-10        2.905e-10        1.969e-10      
                    25.0000        1               
  9.230e-06        1.028e-10        2.910e-10        1.969e-10      
                    25.0000        1               
  9.240e-06        1.035e-10        2.942e-10        1.988e-10      
                    25.0000        1               
  9.250e-06        1.028e-10        2.908e-10        1.968e-10      
                    25.0000        1               
  9.260e-06        1.028e-10        2.910e-10        1.969e-10      
                    25.0000        1               
  9.270e-06        1.034e-10        2.884e-10        1.959e-10      
                    25.0000        1               
  9.280e-06        1.040e-10        2.880e-10        1.960e-10      
                    25.0000        1               
  9.290e-06        1.029e-10        2.867e-10        1.948e-10      
                    25.0000        1               
  9.300e-06        1.042e-10        2.915e-10        1.978e-10      
                    25.0000        1               
  9.310e-06        1.022e-10        2.887e-10        1.955e-10      
                    25.0000        1               
  9.320e-06        1.032e-10        2.948e-10        1.990e-10      
                    25.0000        1               
  9.330e-06        1.034e-10        2.884e-10        1.959e-10      
                    25.0000        1               
  9.340e-06        1.031e-10        2.928e-10        1.980e-10      
                    25.0000        1               
  9.350e-06        1.031e-10        2.924e-10        1.978e-10      
                    25.0000        1               
  9.360e-06        1.032e-10        2.934e-10        1.983e-10      
                    25.0000        1               
  9.370e-06        1.033e-10        2.939e-10        1.986e-10      
                    25.0000        1               
  9.380e-06        1.033e-10        2.943e-10        1.988e-10      
                    25.0000        1               
  9.390e-06        1.046e-10        2.959e-10        2.003e-10      
                    25.0000        1               
  9.400e-06        1.042e-10        2.888e-10        1.965e-10      
                    25.0000        1               
  9.410e-06        1.038e-10        2.889e-10        1.964e-10      
                    25.0000        1               
  9.420e-06        1.038e-10        2.901e-10        1.969e-10      
                    25.0000        1               
  9.430e-06        1.041e-10        2.892e-10        1.966e-10      
                    25.0000        1               
  9.440e-06        1.036e-10        2.959e-10        1.997e-10      
                    25.0000        1               
  9.450e-06        1.042e-10        2.933e-10        1.988e-10      
                    25.0000        1               
  9.460e-06        1.043e-10        2.934e-10        1.988e-10      
                    25.0000        1               
  9.470e-06        1.043e-10        2.935e-10        1.989e-10      
                    25.0000        1               
  9.480e-06        1.048e-10        2.944e-10        1.996e-10      
                    25.0000        1               
  9.490e-06        1.046e-10        2.976e-10        2.011e-10      
                    25.0000        1               
  9.500e-06        1.044e-10        2.975e-10        2.010e-10      
                    25.0000        1               
  9.510e-06        1.050e-10        2.915e-10        1.983e-10      
                    25.0000        1               
  9.520e-06        1.037e-10        2.953e-10        1.995e-10      
                    25.0000        1               
  9.530e-06        1.040e-10        2.913e-10        1.976e-10      
                    25.0000        1               
  9.540e-06        1.038e-10        2.957e-10        1.997e-10      
                    25.0000        1               
  9.550e-06        1.038e-10        2.964e-10        2.001e-10      
                    25.0000        1               
  9.560e-06        1.041e-10        2.918e-10        1.980e-10      
                    25.0000        1               
  9.570e-06        1.044e-10        2.915e-10        1.979e-10      
                    25.0000        1               
  9.580e-06        1.039e-10        2.965e-10        2.002e-10      
                    25.0000        1               
  9.590e-06        1.049e-10        2.974e-10        2.011e-10      
                    25.0000        1               
  9.600e-06        1.048e-10        2.991e-10        2.019e-10      
                    25.0000        1               
  9.610e-06        1.050e-10        2.966e-10        2.008e-10      
                    25.0000        1               
  9.620e-06        1.047e-10        2.997e-10        2.022e-10      
                    25.0000        1               
  9.630e-06        1.042e-10        2.929e-10        1.985e-10      
                    25.0000        1               
  9.640e-06        1.045e-10        2.998e-10        2.021e-10      
                    25.0000        1               
  9.650e-06        1.044e-10        2.997e-10        2.020e-10      
                    25.0000        1               
  9.660e-06        1.046e-10        2.934e-10        1.990e-10      
                    25.0000        1               
  9.670e-06        1.043e-10        2.995e-10        2.019e-10      
                    25.0000        1               
  9.680e-06        1.051e-10        2.978e-10        2.014e-10      
                    25.0000        1               
  9.690e-06        1.043e-10        2.980e-10        2.012e-10      
                    25.0000        1               
  9.700e-06        1.046e-10        3.006e-10        2.026e-10      
                    25.0000        1               
  9.710e-06        1.048e-10        3.027e-10        2.037e-10      
                    25.0000        1               
  9.720e-06        1.049e-10        3.026e-10        2.038e-10      
                    25.0000        1               
  9.730e-06        1.048e-10        3.029e-10        2.039e-10      
                    25.0000        1               
  9.740e-06        1.045e-10        2.993e-10        2.019e-10      
                    25.0000        1               
  9.750e-06        1.046e-10        2.989e-10        2.018e-10      
                    25.0000        1               
  9.760e-06        1.057e-10        3.032e-10        2.045e-10      
                    25.0000        1               
  9.770e-06        1.050e-10        2.980e-10        2.015e-10      
                    25.0000        1               
  9.780e-06        1.057e-10        2.994e-10        2.026e-10      
                    25.0000        1               
  9.790e-06        1.057e-10        2.996e-10        2.026e-10      
                    25.0000        1               
  9.800e-06        1.049e-10        3.024e-10        2.036e-10      
                    25.0000        1               
  9.810e-06        1.049e-10        3.026e-10        2.037e-10      
                    25.0000        1               
  9.820e-06        1.056e-10        3.019e-10        2.038e-10      
                    25.0000        1               
  9.830e-06        1.057e-10        3.048e-10        2.053e-10      
                    25.0000        1               
  9.840e-06        1.057e-10        3.049e-10        2.053e-10      
                    25.0000        1               
  9.850e-06        1.057e-10        2.963e-10        2.010e-10      
                    25.0000        1               
  9.860e-06        1.057e-10        2.968e-10        2.013e-10      
                    25.0000        1               
  9.870e-06        1.054e-10        3.051e-10        2.052e-10      
                    25.0000        1               
  9.880e-06        1.057e-10        2.978e-10        2.018e-10      
                    25.0000        1               
  9.890e-06        1.059e-10        3.057e-10        2.058e-10      
                    25.0000        1               
  9.900e-06        1.060e-10        3.058e-10        2.059e-10      
                    25.0000        1               
  9.910e-06        1.060e-10        3.059e-10        2.060e-10      
                    25.0000        1               
  9.920e-06        1.051e-10        3.001e-10        2.026e-10      
                    25.0000        1               
  9.930e-06        1.061e-10        3.022e-10        2.041e-10      
                    25.0000        1               
  9.940e-06        1.056e-10        3.064e-10        2.060e-10      
                    25.0000        1               
  9.950e-06        1.056e-10        3.019e-10        2.037e-10      
                    25.0000        1               
  9.960e-06        1.056e-10        3.070e-10        2.063e-10      
                    25.0000        1               
  9.970e-06        1.061e-10        2.999e-10        2.030e-10      
                    25.0000        1               
  9.980e-06        1.060e-10        3.027e-10        2.044e-10      
                    25.0000        1               
  9.990e-06        1.054e-10        3.052e-10        2.053e-10      
                    25.0000        1               
  1.000e-05        1.060e-10        3.021e-10        2.040e-10      
                    25.0000        1               
