$DATA1 SOURCE='HSPICE' VERSION='O-2018.09 linux64' PARAM_COUNT=1
.TITLE '**testbench**'
 size             rising_delay     falling_delay    delay_avg       
                  temper           alter#          
  2.500e-07        1.559e-10        3.376e-10        2.468e-10      
                    25.0000        1               
  2.600e-07        1.558e-10        3.296e-10        2.427e-10      
                    25.0000        1               
  2.700e-07        1.545e-10        3.219e-10        2.382e-10      
                    25.0000        1               
  2.800e-07        1.546e-10        3.150e-10        2.348e-10      
                    25.0000        1               
  2.900e-07        1.530e-10        3.089e-10        2.310e-10      
                    25.0000        1               
  3.000e-07        1.542e-10        3.029e-10        2.285e-10      
                    25.0000        1               
  3.100e-07        1.539e-10        2.972e-10        2.256e-10      
                    25.0000        1               
  3.200e-07        1.541e-10        2.924e-10        2.232e-10      
                    25.0000        1               
  3.300e-07        1.559e-10        2.875e-10        2.217e-10      
                    25.0000        1               
  3.400e-07        1.571e-10        2.829e-10        2.200e-10      
                    25.0000        1               
  3.500e-07        1.572e-10        2.786e-10        2.179e-10      
                    25.0000        1               
  3.600e-07        1.573e-10        2.747e-10        2.160e-10      
                    25.0000        1               
  3.700e-07        1.550e-10        2.709e-10        2.129e-10      
                    25.0000        1               
  3.800e-07        1.576e-10        2.670e-10        2.123e-10      
                    25.0000        1               
  3.900e-07        1.546e-10        2.638e-10        2.092e-10      
                    25.0000        1               
  4.000e-07        1.564e-10        2.604e-10        2.084e-10      
                    25.0000        1               
  4.100e-07        1.555e-10        2.573e-10        2.064e-10      
                    25.0000        1               
  4.200e-07        1.556e-10        2.544e-10        2.050e-10      
                    25.0000        1               
  4.300e-07        1.557e-10        2.514e-10        2.036e-10      
                    25.0000        1               
  4.400e-07        1.578e-10        2.487e-10        2.032e-10      
                    25.0000        1               
  4.500e-07        1.565e-10        2.460e-10        2.013e-10      
                    25.0000        1               
  4.600e-07        1.576e-10        2.435e-10        2.005e-10      
                    25.0000        1               
  4.700e-07        1.581e-10        2.411e-10        1.996e-10      
                    25.0000        1               
  4.800e-07        1.577e-10        2.387e-10        1.982e-10      
                    25.0000        1               
  4.900e-07        1.589e-10        2.367e-10        1.978e-10      
                    25.0000        1               
  5.000e-07        1.567e-10        2.340e-10        1.953e-10      
                    25.0000        1               
  5.100e-07        1.579e-10        2.320e-10        1.949e-10      
                    25.0000        1               
  5.200e-07        1.570e-10        2.304e-10        1.937e-10      
                    25.0000        1               
  5.300e-07        1.570e-10        2.286e-10        1.928e-10      
                    25.0000        1               
  5.400e-07        1.574e-10        2.267e-10        1.920e-10      
                    25.0000        1               
  5.500e-07        1.606e-10        2.249e-10        1.927e-10      
                    25.0000        1               
  5.600e-07        1.576e-10        2.231e-10        1.903e-10      
                    25.0000        1               
  5.700e-07        1.579e-10        2.215e-10        1.897e-10      
                    25.0000        1               
  5.800e-07        1.596e-10        2.205e-10        1.900e-10      
                    25.0000        1               
  5.900e-07        1.616e-10        2.186e-10        1.901e-10      
                    25.0000        1               
  6.000e-07        1.580e-10        2.169e-10        1.874e-10      
                    25.0000        1               
  6.100e-07        1.586e-10        2.153e-10        1.870e-10      
                    25.0000        1               
  6.200e-07        1.586e-10        2.139e-10        1.863e-10      
                    25.0000        1               
  6.300e-07        1.587e-10        2.125e-10        1.856e-10      
                    25.0000        1               
  6.400e-07        1.589e-10        2.112e-10        1.850e-10      
                    25.0000        1               
  6.500e-07        1.598e-10        2.099e-10        1.849e-10      
                    25.0000        1               
  6.600e-07        1.601e-10        2.085e-10        1.843e-10      
                    25.0000        1               
  6.700e-07        1.602e-10        2.073e-10        1.838e-10      
                    25.0000        1               
  6.800e-07        1.605e-10        2.061e-10        1.833e-10      
                    25.0000        1               
  6.900e-07        1.617e-10        2.049e-10        1.833e-10      
                    25.0000        1               
  7.000e-07        1.629e-10        2.039e-10        1.834e-10      
                    25.0000        1               
  7.100e-07        1.621e-10        2.027e-10        1.824e-10      
                    25.0000        1               
  7.200e-07        1.603e-10        2.018e-10        1.810e-10      
                    25.0000        1               
  7.300e-07        1.635e-10        2.022e-10        1.829e-10      
                    25.0000        1               
  7.400e-07        1.613e-10        1.996e-10        1.805e-10      
                    25.0000        1               
  7.500e-07        1.612e-10        1.987e-10        1.800e-10      
                    25.0000        1               
  7.600e-07        1.609e-10        1.976e-10        1.792e-10      
                    25.0000        1               
  7.700e-07        1.612e-10        1.968e-10        1.790e-10      
                    25.0000        1               
  7.800e-07        1.636e-10        1.958e-10        1.797e-10      
                    25.0000        1               
  7.900e-07        1.630e-10        1.949e-10        1.790e-10      
                    25.0000        1               
  8.000e-07        1.633e-10        1.940e-10        1.787e-10      
                    25.0000        1               
  8.100e-07        1.624e-10        1.933e-10        1.778e-10      
                    25.0000        1               
  8.200e-07        1.626e-10        1.924e-10        1.775e-10      
                    25.0000        1               
  8.300e-07        1.620e-10        1.913e-10        1.766e-10      
                    25.0000        1               
  8.400e-07        1.621e-10        1.905e-10        1.763e-10      
                    25.0000        1               
  8.500e-07        1.623e-10        1.897e-10        1.760e-10      
                    25.0000        1               
  8.600e-07        1.624e-10        1.890e-10        1.757e-10      
                    25.0000        1               
  8.700e-07        1.626e-10        1.882e-10        1.754e-10      
                    25.0000        1               
  8.800e-07        1.636e-10        1.877e-10        1.757e-10      
                    25.0000        1               
  8.900e-07        1.641e-10        1.870e-10        1.756e-10      
                    25.0000        1               
  9.000e-07        1.631e-10        1.863e-10        1.747e-10      
                    25.0000        1               
  9.100e-07        1.622e-10        1.857e-10        1.740e-10      
                    25.0000        1               
  9.200e-07        1.624e-10        1.851e-10        1.737e-10      
                    25.0000        1               
  9.300e-07        1.636e-10        1.844e-10        1.740e-10      
                    25.0000        1               
  9.400e-07        1.636e-10        1.834e-10        1.735e-10      
                    25.0000        1               
  9.500e-07        1.641e-10        1.828e-10        1.734e-10      
                    25.0000        1               
  9.600e-07        1.647e-10        1.822e-10        1.734e-10      
                    25.0000        1               
  9.700e-07        1.650e-10        1.819e-10        1.734e-10      
                    25.0000        1               
  9.800e-07        1.637e-10        1.813e-10        1.725e-10      
                    25.0000        1               
  9.900e-07        1.670e-10        1.807e-10        1.738e-10      
                    25.0000        1               
  1.000e-06        1.621e-10        1.800e-10        1.710e-10      
                    25.0000        1               
  1.010e-06        1.651e-10        1.802e-10        1.727e-10      
                    25.0000        1               
  1.020e-06        1.660e-10        1.790e-10        1.725e-10      
                    25.0000        1               
  1.030e-06        1.674e-10        1.784e-10        1.729e-10      
                    25.0000        1               
  1.040e-06        1.677e-10        1.779e-10        1.728e-10      
                    25.0000        1               
  1.050e-06        1.652e-10        1.773e-10        1.712e-10      
                    25.0000        1               
  1.060e-06        1.682e-10        1.768e-10        1.725e-10      
                    25.0000        1               
  1.070e-06        1.658e-10        1.763e-10        1.711e-10      
                    25.0000        1               
  1.080e-06        1.657e-10        1.757e-10        1.707e-10      
                    25.0000        1               
  1.090e-06        1.673e-10        1.757e-10        1.715e-10      
                    25.0000        1               
  1.100e-06        1.676e-10        1.748e-10        1.712e-10      
                    25.0000        1               
  1.110e-06        1.687e-10        1.744e-10        1.715e-10      
                    25.0000        1               
  1.120e-06        1.665e-10        1.744e-10        1.705e-10      
                    25.0000        1               
  1.130e-06        1.690e-10        1.734e-10        1.712e-10      
                    25.0000        1               
  1.140e-06        1.655e-10        1.730e-10        1.693e-10      
                    25.0000        1               
  1.150e-06        1.657e-10        1.726e-10        1.692e-10      
                    25.0000        1               
  1.160e-06        1.629e-10        1.721e-10        1.675e-10      
                    25.0000        1               
  1.170e-06        1.696e-10        1.717e-10        1.706e-10      
                    25.0000        1               
  1.180e-06        1.696e-10        1.713e-10        1.705e-10      
                    25.0000        1               
  1.190e-06        1.692e-10        1.709e-10        1.700e-10      
                    25.0000        1               
  1.200e-06        1.696e-10        1.705e-10        1.700e-10      
                    25.0000        1               
  1.210e-06        1.699e-10        1.701e-10        1.700e-10      
                    25.0000        1               
  1.220e-06        1.699e-10        1.697e-10        1.698e-10      
                    25.0000        1               
  1.230e-06        1.698e-10        1.693e-10        1.696e-10      
                    25.0000        1               
  1.240e-06        1.689e-10        1.691e-10        1.690e-10      
                    25.0000        1               
  1.250e-06        1.688e-10        1.687e-10        1.688e-10      
                    25.0000        1               
  1.260e-06        1.687e-10        1.683e-10        1.685e-10      
                    25.0000        1               
  1.270e-06        1.692e-10        1.674e-10        1.683e-10      
                    25.0000        1               
  1.280e-06        1.687e-10        1.652e-10        1.670e-10      
                    25.0000        1               
  1.290e-06        1.688e-10        1.648e-10        1.668e-10      
                    25.0000        1               
  1.300e-06        1.691e-10        1.663e-10        1.677e-10      
                    25.0000        1               
  1.310e-06        1.692e-10        1.659e-10        1.676e-10      
                    25.0000        1               
  1.320e-06        1.690e-10        1.654e-10        1.672e-10      
                    25.0000        1               
  1.330e-06        1.696e-10        1.653e-10        1.675e-10      
                    25.0000        1               
  1.340e-06        1.696e-10        1.650e-10        1.673e-10      
                    25.0000        1               
  1.350e-06        1.706e-10        1.647e-10        1.676e-10      
                    25.0000        1               
  1.360e-06        1.714e-10        1.643e-10        1.679e-10      
                    25.0000        1               
  1.370e-06        1.720e-10        1.642e-10        1.681e-10      
                    25.0000        1               
  1.380e-06        1.722e-10        1.643e-10        1.682e-10      
                    25.0000        1               
  1.390e-06        1.723e-10        1.640e-10        1.682e-10      
                    25.0000        1               
  1.400e-06        1.703e-10        1.637e-10        1.670e-10      
                    25.0000        1               
  1.410e-06        1.704e-10        1.628e-10        1.666e-10      
                    25.0000        1               
  1.420e-06        1.728e-10        1.625e-10        1.677e-10      
                    25.0000        1               
  1.430e-06        1.732e-10        1.629e-10        1.680e-10      
                    25.0000        1               
  1.440e-06        1.726e-10        1.626e-10        1.676e-10      
                    25.0000        1               
  1.450e-06        1.727e-10        1.623e-10        1.675e-10      
                    25.0000        1               
  1.460e-06        1.728e-10        1.621e-10        1.674e-10      
                    25.0000        1               
  1.470e-06        1.731e-10        1.611e-10        1.671e-10      
                    25.0000        1               
  1.480e-06        1.717e-10        1.610e-10        1.663e-10      
                    25.0000        1               
  1.490e-06        1.721e-10        1.606e-10        1.663e-10      
                    25.0000        1               
  1.500e-06        1.725e-10        1.603e-10        1.664e-10      
                    25.0000        1               
  1.510e-06        1.726e-10        1.608e-10        1.667e-10      
                    25.0000        1               
  1.520e-06        1.725e-10        1.605e-10        1.665e-10      
                    25.0000        1               
  1.530e-06        1.728e-10        1.603e-10        1.665e-10      
                    25.0000        1               
  1.540e-06        1.726e-10        1.600e-10        1.663e-10      
                    25.0000        1               
  1.550e-06        1.723e-10        1.587e-10        1.655e-10      
                    25.0000        1               
  1.560e-06        1.723e-10        1.584e-10        1.654e-10      
                    25.0000        1               
  1.570e-06        1.727e-10        1.593e-10        1.660e-10      
                    25.0000        1               
  1.580e-06        1.728e-10        1.591e-10        1.660e-10      
                    25.0000        1               
  1.590e-06        1.720e-10        1.588e-10        1.654e-10      
                    25.0000        1               
  1.600e-06        1.726e-10        1.584e-10        1.655e-10      
                    25.0000        1               
  1.610e-06        1.723e-10        1.584e-10        1.653e-10      
                    25.0000        1               
  1.620e-06        1.724e-10        1.582e-10        1.653e-10      
                    25.0000        1               
  1.630e-06        1.725e-10        1.580e-10        1.652e-10      
                    25.0000        1               
  1.640e-06        1.727e-10        1.577e-10        1.652e-10      
                    25.0000        1               
  1.650e-06        1.757e-10        1.575e-10        1.666e-10      
                    25.0000        1               
  1.660e-06        1.738e-10        1.574e-10        1.656e-10      
                    25.0000        1               
  1.670e-06        1.745e-10        1.560e-10        1.653e-10      
                    25.0000        1               
  1.680e-06        1.743e-10        1.561e-10        1.652e-10      
                    25.0000        1               
  1.690e-06        1.745e-10        1.567e-10        1.656e-10      
                    25.0000        1               
  1.700e-06        1.747e-10        1.565e-10        1.656e-10      
                    25.0000        1               
  1.710e-06        1.748e-10        1.562e-10        1.655e-10      
                    25.0000        1               
  1.720e-06        1.750e-10        1.558e-10        1.654e-10      
                    25.0000        1               
  1.730e-06        1.773e-10        1.559e-10        1.666e-10      
                    25.0000        1               
  1.740e-06        1.751e-10        1.557e-10        1.654e-10      
                    25.0000        1               
  1.750e-06        1.753e-10        1.555e-10        1.654e-10      
                    25.0000        1               
  1.760e-06        1.754e-10        1.553e-10        1.654e-10      
                    25.0000        1               
  1.770e-06        1.756e-10        1.551e-10        1.653e-10      
                    25.0000        1               
  1.780e-06        1.757e-10        1.549e-10        1.653e-10      
                    25.0000        1               
  1.790e-06        1.759e-10        1.547e-10        1.653e-10      
                    25.0000        1               
  1.800e-06        1.760e-10        1.545e-10        1.653e-10      
                    25.0000        1               
  1.810e-06        1.762e-10        1.543e-10        1.652e-10      
                    25.0000        1               
  1.820e-06        1.763e-10        1.541e-10        1.652e-10      
                    25.0000        1               
  1.830e-06        1.765e-10        1.539e-10        1.652e-10      
                    25.0000        1               
  1.840e-06        1.766e-10        1.538e-10        1.652e-10      
                    25.0000        1               
  1.850e-06        1.767e-10        1.536e-10        1.652e-10      
                    25.0000        1               
  1.860e-06        1.769e-10        1.534e-10        1.651e-10      
                    25.0000        1               
  1.870e-06        1.770e-10        1.532e-10        1.651e-10      
                    25.0000        1               
  1.880e-06        1.772e-10        1.531e-10        1.651e-10      
                    25.0000        1               
  1.890e-06        1.773e-10        1.529e-10        1.651e-10      
                    25.0000        1               
  1.900e-06        1.774e-10        1.527e-10        1.651e-10      
                    25.0000        1               
  1.910e-06        1.776e-10        1.526e-10        1.651e-10      
                    25.0000        1               
  1.920e-06        1.777e-10        1.524e-10        1.651e-10      
                    25.0000        1               
  1.930e-06        1.779e-10        1.522e-10        1.650e-10      
                    25.0000        1               
  1.940e-06        1.780e-10        1.521e-10        1.650e-10      
                    25.0000        1               
  1.950e-06        1.781e-10        1.519e-10        1.650e-10      
                    25.0000        1               
  1.960e-06        1.779e-10        1.517e-10        1.648e-10      
                    25.0000        1               
  1.970e-06        1.785e-10        1.516e-10        1.650e-10      
                    25.0000        1               
  1.980e-06        1.797e-10        1.514e-10        1.656e-10      
                    25.0000        1               
  1.990e-06        1.797e-10        1.512e-10        1.654e-10      
                    25.0000        1               
  2.000e-06        1.789e-10        1.511e-10        1.650e-10      
                    25.0000        1               
  2.010e-06        1.790e-10        1.510e-10        1.650e-10      
                    25.0000        1               
  2.020e-06        1.787e-10        1.504e-10        1.646e-10      
                    25.0000        1               
  2.030e-06        1.788e-10        1.503e-10        1.646e-10      
                    25.0000        1               
  2.040e-06        1.793e-10        1.501e-10        1.647e-10      
                    25.0000        1               
  2.050e-06        1.801e-10        1.504e-10        1.652e-10      
                    25.0000        1               
  2.060e-06        1.792e-10        1.498e-10        1.645e-10      
                    25.0000        1               
  2.070e-06        1.804e-10        1.501e-10        1.653e-10      
                    25.0000        1               
  2.080e-06        1.806e-10        1.499e-10        1.653e-10      
                    25.0000        1               
  2.090e-06        1.808e-10        1.498e-10        1.653e-10      
                    25.0000        1               
  2.100e-06        1.809e-10        1.497e-10        1.653e-10      
                    25.0000        1               
  2.110e-06        1.810e-10        1.495e-10        1.653e-10      
                    25.0000        1               
  2.120e-06        1.812e-10        1.494e-10        1.653e-10      
                    25.0000        1               
  2.130e-06        1.813e-10        1.492e-10        1.653e-10      
                    25.0000        1               
  2.140e-06        1.815e-10        1.491e-10        1.653e-10      
                    25.0000        1               
  2.150e-06        1.816e-10        1.490e-10        1.653e-10      
                    25.0000        1               
  2.160e-06        1.818e-10        1.489e-10        1.653e-10      
                    25.0000        1               
  2.170e-06        1.819e-10        1.487e-10        1.653e-10      
                    25.0000        1               
  2.180e-06        1.821e-10        1.486e-10        1.653e-10      
                    25.0000        1               
  2.190e-06        1.822e-10        1.484e-10        1.653e-10      
                    25.0000        1               
  2.200e-06        1.824e-10        1.482e-10        1.653e-10      
                    25.0000        1               
  2.210e-06        1.825e-10        1.481e-10        1.653e-10      
                    25.0000        1               
  2.220e-06        1.827e-10        1.480e-10        1.653e-10      
                    25.0000        1               
  2.230e-06        1.828e-10        1.479e-10        1.653e-10      
                    25.0000        1               
  2.240e-06        1.830e-10        1.478e-10        1.654e-10      
                    25.0000        1               
  2.250e-06        1.831e-10        1.476e-10        1.654e-10      
                    25.0000        1               
  2.260e-06        1.833e-10        1.475e-10        1.654e-10      
                    25.0000        1               
  2.270e-06        1.834e-10        1.474e-10        1.654e-10      
                    25.0000        1               
  2.280e-06        1.817e-10        1.473e-10        1.645e-10      
                    25.0000        1               
  2.290e-06        1.819e-10        1.472e-10        1.645e-10      
                    25.0000        1               
  2.300e-06        1.824e-10        1.471e-10        1.648e-10      
                    25.0000        1               
  2.310e-06        1.826e-10        1.470e-10        1.648e-10      
                    25.0000        1               
  2.320e-06        1.827e-10        1.469e-10        1.648e-10      
                    25.0000        1               
  2.330e-06        1.828e-10        1.468e-10        1.648e-10      
                    25.0000        1               
  2.340e-06        1.830e-10        1.467e-10        1.648e-10      
                    25.0000        1               
  2.350e-06        1.831e-10        1.467e-10        1.649e-10      
                    25.0000        1               
  2.360e-06        1.832e-10        1.466e-10        1.649e-10      
                    25.0000        1               
  2.370e-06        1.834e-10        1.466e-10        1.650e-10      
                    25.0000        1               
  2.380e-06        1.835e-10        1.465e-10        1.650e-10      
                    25.0000        1               
  2.390e-06        1.836e-10        1.465e-10        1.650e-10      
                    25.0000        1               
  2.400e-06        1.838e-10        1.464e-10        1.651e-10      
                    25.0000        1               
  2.410e-06        1.839e-10        1.462e-10        1.651e-10      
                    25.0000        1               
  2.420e-06        1.841e-10        1.461e-10        1.651e-10      
                    25.0000        1               
  2.430e-06        1.842e-10        1.459e-10        1.650e-10      
                    25.0000        1               
  2.440e-06        1.859e-10        1.456e-10        1.658e-10      
                    25.0000        1               
  2.450e-06        1.860e-10        1.455e-10        1.658e-10      
                    25.0000        1               
  2.460e-06        1.861e-10        1.454e-10        1.658e-10      
                    25.0000        1               
  2.470e-06        1.863e-10        1.453e-10        1.658e-10      
                    25.0000        1               
  2.480e-06        1.864e-10        1.453e-10        1.658e-10      
                    25.0000        1               
  2.490e-06        1.866e-10        1.452e-10        1.659e-10      
                    25.0000        1               
  2.500e-06        1.867e-10        1.451e-10        1.659e-10      
                    25.0000        1               
  2.510e-06        1.868e-10        1.450e-10        1.659e-10      
                    25.0000        1               
  2.520e-06        1.870e-10        1.449e-10        1.659e-10      
                    25.0000        1               
  2.530e-06        1.871e-10        1.448e-10        1.660e-10      
                    25.0000        1               
  2.540e-06        1.873e-10        1.447e-10        1.660e-10      
                    25.0000        1               
  2.550e-06        1.874e-10        1.446e-10        1.660e-10      
                    25.0000        1               
  2.560e-06        1.876e-10        1.445e-10        1.660e-10      
                    25.0000        1               
  2.570e-06        1.877e-10        1.444e-10        1.661e-10      
                    25.0000        1               
  2.580e-06        1.878e-10        1.443e-10        1.661e-10      
                    25.0000        1               
  2.590e-06        1.880e-10        1.442e-10        1.661e-10      
                    25.0000        1               
  2.600e-06        1.881e-10        1.441e-10        1.661e-10      
                    25.0000        1               
  2.610e-06        1.883e-10        1.441e-10        1.662e-10      
                    25.0000        1               
  2.620e-06        1.884e-10        1.440e-10        1.662e-10      
                    25.0000        1               
  2.630e-06        1.885e-10        1.439e-10        1.662e-10      
                    25.0000        1               
  2.640e-06        1.887e-10        1.438e-10        1.662e-10      
                    25.0000        1               
  2.650e-06        1.888e-10        1.437e-10        1.663e-10      
                    25.0000        1               
  2.660e-06        1.889e-10        1.436e-10        1.663e-10      
                    25.0000        1               
  2.670e-06        1.891e-10        1.436e-10        1.663e-10      
                    25.0000        1               
  2.680e-06        1.892e-10        1.435e-10        1.664e-10      
                    25.0000        1               
  2.690e-06        1.894e-10        1.434e-10        1.664e-10      
                    25.0000        1               
  2.700e-06        1.895e-10        1.433e-10        1.664e-10      
                    25.0000        1               
  2.710e-06        1.896e-10        1.432e-10        1.664e-10      
                    25.0000        1               
  2.720e-06        1.898e-10        1.432e-10        1.665e-10      
                    25.0000        1               
  2.730e-06        1.899e-10        1.431e-10        1.665e-10      
                    25.0000        1               
  2.740e-06        1.901e-10        1.430e-10        1.665e-10      
                    25.0000        1               
  2.750e-06        1.902e-10        1.429e-10        1.666e-10      
                    25.0000        1               
  2.760e-06        1.903e-10        1.429e-10        1.666e-10      
                    25.0000        1               
  2.770e-06        1.905e-10        1.428e-10        1.666e-10      
                    25.0000        1               
  2.780e-06        1.906e-10        1.427e-10        1.666e-10      
                    25.0000        1               
  2.790e-06        1.907e-10        1.426e-10        1.667e-10      
                    25.0000        1               
  2.800e-06        1.909e-10        1.426e-10        1.667e-10      
                    25.0000        1               
  2.810e-06        1.910e-10        1.425e-10        1.667e-10      
                    25.0000        1               
  2.820e-06        1.911e-10        1.424e-10        1.668e-10      
                    25.0000        1               
  2.830e-06        1.913e-10        1.423e-10        1.668e-10      
                    25.0000        1               
  2.840e-06        1.914e-10        1.423e-10        1.668e-10      
                    25.0000        1               
  2.850e-06        1.917e-10        1.422e-10        1.669e-10      
                    25.0000        1               
  2.860e-06        1.918e-10        1.421e-10        1.670e-10      
                    25.0000        1               
  2.870e-06        1.920e-10        1.421e-10        1.670e-10      
                    25.0000        1               
  2.880e-06        1.921e-10        1.420e-10        1.671e-10      
                    25.0000        1               
  2.890e-06        1.922e-10        1.419e-10        1.671e-10      
                    25.0000        1               
  2.900e-06        1.924e-10        1.419e-10        1.671e-10      
                    25.0000        1               
  2.910e-06        1.925e-10        1.418e-10        1.672e-10      
                    25.0000        1               
  2.920e-06        1.927e-10        1.417e-10        1.672e-10      
                    25.0000        1               
  2.930e-06        1.928e-10        1.417e-10        1.672e-10      
                    25.0000        1               
  2.940e-06        1.929e-10        1.416e-10        1.673e-10      
                    25.0000        1               
  2.950e-06        1.931e-10        1.415e-10        1.673e-10      
                    25.0000        1               
  2.960e-06        1.932e-10        1.415e-10        1.673e-10      
                    25.0000        1               
  2.970e-06        1.933e-10        1.414e-10        1.674e-10      
                    25.0000        1               
  2.980e-06        1.935e-10        1.413e-10        1.674e-10      
                    25.0000        1               
  2.990e-06        1.936e-10        1.413e-10        1.674e-10      
                    25.0000        1               
  3.000e-06        1.938e-10        1.412e-10        1.675e-10      
                    25.0000        1               
