$DATA1 SOURCE='HSPICE' VERSION='O-2018.09 linux64' PARAM_COUNT=1
.TITLE '**testbench**'
 size             rising_delay     falling_delay    delay_avg       
                  temper           alter#          
  2.500e-07        3.839e-10        1.311e-10        2.575e-10      
                    25.0000        1               
  2.600e-07        3.746e-10        1.319e-10        2.533e-10      
                    25.0000        1               
  2.700e-07        3.624e-10        1.351e-10        2.488e-10      
                    25.0000        1               
  2.800e-07        3.545e-10        1.327e-10        2.436e-10      
                    25.0000        1               
  2.900e-07        3.458e-10        1.330e-10        2.394e-10      
                    25.0000        1               
  3.000e-07        3.377e-10        1.335e-10        2.356e-10      
                    25.0000        1               
  3.100e-07        3.266e-10        1.341e-10        2.304e-10      
                    25.0000        1               
  3.200e-07        3.201e-10        1.382e-10        2.291e-10      
                    25.0000        1               
  3.300e-07        3.175e-10        1.349e-10        2.262e-10      
                    25.0000        1               
  3.400e-07        3.119e-10        1.354e-10        2.236e-10      
                    25.0000        1               
  3.500e-07        3.060e-10        1.356e-10        2.208e-10      
                    25.0000        1               
  3.600e-07        3.006e-10        1.364e-10        2.185e-10      
                    25.0000        1               
  3.700e-07        2.959e-10        1.368e-10        2.164e-10      
                    25.0000        1               
  3.800e-07        2.909e-10        1.371e-10        2.140e-10      
                    25.0000        1               
  3.900e-07        2.868e-10        1.377e-10        2.123e-10      
                    25.0000        1               
  4.000e-07        2.824e-10        1.381e-10        2.102e-10      
                    25.0000        1               
  4.100e-07        2.780e-10        1.385e-10        2.083e-10      
                    25.0000        1               
  4.200e-07        2.732e-10        1.393e-10        2.062e-10      
                    25.0000        1               
  4.300e-07        2.692e-10        1.397e-10        2.044e-10      
                    25.0000        1               
  4.400e-07        2.663e-10        1.401e-10        2.032e-10      
                    25.0000        1               
  4.500e-07        2.625e-10        1.406e-10        2.015e-10      
                    25.0000        1               
  4.600e-07        2.578e-10        1.411e-10        1.994e-10      
                    25.0000        1               
  4.700e-07        2.565e-10        1.414e-10        1.990e-10      
                    25.0000        1               
  4.800e-07        2.530e-10        1.420e-10        1.975e-10      
                    25.0000        1               
  4.900e-07        2.500e-10        1.425e-10        1.963e-10      
                    25.0000        1               
  5.000e-07        2.472e-10        1.430e-10        1.951e-10      
                    25.0000        1               
  5.100e-07        2.444e-10        1.434e-10        1.939e-10      
                    25.0000        1               
  5.200e-07        2.419e-10        1.437e-10        1.928e-10      
                    25.0000        1               
  5.300e-07        2.396e-10        1.441e-10        1.918e-10      
                    25.0000        1               
  5.400e-07        2.359e-10        1.466e-10        1.912e-10      
                    25.0000        1               
  5.500e-07        2.352e-10        1.453e-10        1.902e-10      
                    25.0000        1               
  5.600e-07        2.332e-10        1.458e-10        1.895e-10      
                    25.0000        1               
  5.700e-07        2.301e-10        1.459e-10        1.880e-10      
                    25.0000        1               
  5.800e-07        2.256e-10        1.468e-10        1.862e-10      
                    25.0000        1               
  5.900e-07        2.272e-10        1.473e-10        1.873e-10      
                    25.0000        1               
  6.000e-07        2.243e-10        1.474e-10        1.859e-10      
                    25.0000        1               
  6.100e-07        2.219e-10        1.483e-10        1.851e-10      
                    25.0000        1               
  6.200e-07        2.209e-10        1.488e-10        1.848e-10      
                    25.0000        1               
  6.300e-07        2.184e-10        1.491e-10        1.838e-10      
                    25.0000        1               
  6.400e-07        2.174e-10        1.499e-10        1.836e-10      
                    25.0000        1               
  6.500e-07        2.153e-10        1.504e-10        1.829e-10      
                    25.0000        1               
  6.600e-07        2.135e-10        1.509e-10        1.822e-10      
                    25.0000        1               
  6.700e-07        2.118e-10        1.514e-10        1.816e-10      
                    25.0000        1               
  6.800e-07        2.101e-10        1.519e-10        1.810e-10      
                    25.0000        1               
  6.900e-07        2.077e-10        1.525e-10        1.801e-10      
                    25.0000        1               
  7.000e-07        2.067e-10        1.529e-10        1.798e-10      
                    25.0000        1               
  7.100e-07        2.051e-10        1.535e-10        1.793e-10      
                    25.0000        1               
  7.200e-07        2.036e-10        1.541e-10        1.788e-10      
                    25.0000        1               
  7.300e-07        2.019e-10        1.547e-10        1.783e-10      
                    25.0000        1               
  7.400e-07        2.014e-10        1.552e-10        1.783e-10      
                    25.0000        1               
  7.500e-07        1.996e-10        1.559e-10        1.778e-10      
                    25.0000        1               
  7.600e-07        1.987e-10        1.565e-10        1.776e-10      
                    25.0000        1               
  7.700e-07        1.983e-10        1.570e-10        1.776e-10      
                    25.0000        1               
  7.800e-07        1.942e-10        1.573e-10        1.758e-10      
                    25.0000        1               
  7.900e-07        1.930e-10        1.580e-10        1.755e-10      
                    25.0000        1               
  8.000e-07        1.928e-10        1.585e-10        1.757e-10      
                    25.0000        1               
  8.100e-07        1.949e-10        1.591e-10        1.770e-10      
                    25.0000        1               
  8.200e-07        1.913e-10        1.599e-10        1.756e-10      
                    25.0000        1               
  8.300e-07        1.910e-10        1.621e-10        1.766e-10      
                    25.0000        1               
  8.400e-07        1.894e-10        1.605e-10        1.750e-10      
                    25.0000        1               
  8.500e-07        1.904e-10        1.615e-10        1.760e-10      
                    25.0000        1               
  8.600e-07        1.852e-10        1.625e-10        1.738e-10      
                    25.0000        1               
  8.700e-07        1.860e-10        1.628e-10        1.744e-10      
                    25.0000        1               
  8.800e-07        1.841e-10        1.631e-10        1.736e-10      
                    25.0000        1               
  8.900e-07        1.831e-10        1.637e-10        1.734e-10      
                    25.0000        1               
  9.000e-07        1.838e-10        1.662e-10        1.750e-10      
                    25.0000        1               
  9.100e-07        1.799e-10        1.654e-10        1.726e-10      
                    25.0000        1               
  9.200e-07        1.814e-10        1.659e-10        1.736e-10      
                    25.0000        1               
  9.300e-07        1.785e-10        1.667e-10        1.726e-10      
                    25.0000        1               
  9.400e-07        1.796e-10        1.672e-10        1.734e-10      
                    25.0000        1               
  9.500e-07        1.793e-10        1.679e-10        1.736e-10      
                    25.0000        1               
  9.600e-07        1.789e-10        1.686e-10        1.737e-10      
                    25.0000        1               
  9.700e-07        1.766e-10        1.692e-10        1.729e-10      
                    25.0000        1               
  9.800e-07        1.750e-10        1.700e-10        1.725e-10      
                    25.0000        1               
  9.900e-07        1.762e-10        1.707e-10        1.734e-10      
                    25.0000        1               
  1.000e-06        1.748e-10        1.718e-10        1.733e-10      
                    25.0000        1               
  1.010e-06        1.747e-10        1.719e-10        1.733e-10      
                    25.0000        1               
  1.020e-06        1.740e-10        1.726e-10        1.733e-10      
                    25.0000        1               
  1.030e-06        1.731e-10        1.733e-10        1.732e-10      
                    25.0000        1               
  1.040e-06        1.703e-10        1.739e-10        1.721e-10      
                    25.0000        1               
  1.050e-06        1.692e-10        1.748e-10        1.720e-10      
                    25.0000        1               
  1.060e-06        1.704e-10        1.756e-10        1.730e-10      
                    25.0000        1               
  1.070e-06        1.700e-10        1.765e-10        1.733e-10      
                    25.0000        1               
  1.080e-06        1.699e-10        1.770e-10        1.735e-10      
                    25.0000        1               
  1.090e-06        1.671e-10        1.781e-10        1.726e-10      
                    25.0000        1               
  1.100e-06        1.660e-10        1.786e-10        1.723e-10      
                    25.0000        1               
  1.110e-06        1.662e-10        1.796e-10        1.729e-10      
                    25.0000        1               
  1.120e-06        1.636e-10        1.801e-10        1.719e-10      
                    25.0000        1               
  1.130e-06        1.624e-10        1.809e-10        1.717e-10      
                    25.0000        1               
  1.140e-06        1.634e-10        1.818e-10        1.726e-10      
                    25.0000        1               
  1.150e-06        1.613e-10        1.826e-10        1.719e-10      
                    25.0000        1               
  1.160e-06        1.627e-10        1.848e-10        1.738e-10      
                    25.0000        1               
  1.170e-06        1.633e-10        1.842e-10        1.737e-10      
                    25.0000        1               
  1.180e-06        1.600e-10        1.850e-10        1.725e-10      
                    25.0000        1               
  1.190e-06        1.609e-10        1.859e-10        1.734e-10      
                    25.0000        1               
  1.200e-06        1.604e-10        1.867e-10        1.736e-10      
                    25.0000        1               
  1.210e-06        1.600e-10        1.877e-10        1.738e-10      
                    25.0000        1               
  1.220e-06        1.596e-10        1.885e-10        1.740e-10      
                    25.0000        1               
  1.230e-06        1.589e-10        1.892e-10        1.740e-10      
                    25.0000        1               
  1.240e-06        1.578e-10        1.903e-10        1.740e-10      
                    25.0000        1               
  1.250e-06        1.551e-10        1.912e-10        1.731e-10      
                    25.0000        1               
  1.260e-06        1.573e-10        1.918e-10        1.746e-10      
                    25.0000        1               
  1.270e-06        1.569e-10        1.931e-10        1.750e-10      
                    25.0000        1               
  1.280e-06        1.552e-10        1.938e-10        1.745e-10      
                    25.0000        1               
  1.290e-06        1.534e-10        1.946e-10        1.740e-10      
                    25.0000        1               
  1.300e-06        1.539e-10        1.959e-10        1.749e-10      
                    25.0000        1               
  1.310e-06        1.516e-10        1.973e-10        1.745e-10      
                    25.0000        1               
  1.320e-06        1.523e-10        1.979e-10        1.751e-10      
                    25.0000        1               
  1.330e-06        1.529e-10        1.990e-10        1.759e-10      
                    25.0000        1               
  1.340e-06        1.526e-10        1.995e-10        1.760e-10      
                    25.0000        1               
  1.350e-06        1.541e-10        2.014e-10        1.778e-10      
                    25.0000        1               
  1.360e-06        1.523e-10        2.019e-10        1.771e-10      
                    25.0000        1               
  1.370e-06        1.521e-10        2.029e-10        1.775e-10      
                    25.0000        1               
  1.380e-06        1.514e-10        2.037e-10        1.776e-10      
                    25.0000        1               
  1.390e-06        1.477e-10        2.052e-10        1.764e-10      
                    25.0000        1               
  1.400e-06        1.477e-10        2.063e-10        1.770e-10      
                    25.0000        1               
  1.410e-06        1.502e-10        2.075e-10        1.788e-10      
                    25.0000        1               
  1.420e-06        1.476e-10        2.085e-10        1.780e-10      
                    25.0000        1               
  1.430e-06        1.492e-10        2.097e-10        1.795e-10      
                    25.0000        1               
  1.440e-06        1.458e-10        2.104e-10        1.781e-10      
                    25.0000        1               
  1.450e-06        1.454e-10        2.116e-10        1.785e-10      
                    25.0000        1               
  1.460e-06        1.457e-10        2.133e-10        1.795e-10      
                    25.0000        1               
  1.470e-06        1.448e-10        2.146e-10        1.797e-10      
                    25.0000        1               
  1.480e-06        1.437e-10        2.158e-10        1.798e-10      
                    25.0000        1               
  1.490e-06        1.464e-10        2.170e-10        1.817e-10      
                    25.0000        1               
  1.500e-06        1.430e-10        2.184e-10        1.807e-10      
                    25.0000        1               
  1.510e-06        1.447e-10        2.197e-10        1.822e-10      
                    25.0000        1               
  1.520e-06        1.423e-10        2.203e-10        1.813e-10      
                    25.0000        1               
  1.530e-06        1.444e-10        2.223e-10        1.834e-10      
                    25.0000        1               
  1.540e-06        1.416e-10        2.238e-10        1.827e-10      
                    25.0000        1               
  1.550e-06        1.411e-10        2.241e-10        1.826e-10      
                    25.0000        1               
  1.560e-06        1.408e-10        2.264e-10        1.836e-10      
                    25.0000        1               
  1.570e-06        1.403e-10        2.272e-10        1.837e-10      
                    25.0000        1               
  1.580e-06        1.399e-10        2.287e-10        1.843e-10      
                    25.0000        1               
  1.590e-06        1.396e-10        2.305e-10        1.850e-10      
                    25.0000        1               
  1.600e-06        1.396e-10        2.316e-10        1.856e-10      
                    25.0000        1               
  1.610e-06        1.388e-10        2.343e-10        1.866e-10      
                    25.0000        1               
  1.620e-06        1.384e-10        2.352e-10        1.868e-10      
                    25.0000        1               
  1.630e-06        1.383e-10        2.373e-10        1.878e-10      
                    25.0000        1               
  1.640e-06        1.377e-10        2.387e-10        1.882e-10      
                    25.0000        1               
  1.650e-06        1.374e-10        2.404e-10        1.889e-10      
                    25.0000        1               
  1.660e-06        1.370e-10        2.429e-10        1.899e-10      
                    25.0000        1               
  1.670e-06        1.366e-10        2.434e-10        1.900e-10      
                    25.0000        1               
  1.680e-06        1.363e-10        2.451e-10        1.907e-10      
                    25.0000        1               
  1.690e-06        1.359e-10        2.468e-10        1.913e-10      
                    25.0000        1               
  1.700e-06        1.356e-10        2.486e-10        1.921e-10      
                    25.0000        1               
  1.710e-06        1.368e-10        2.498e-10        1.933e-10      
                    25.0000        1               
  1.720e-06        1.349e-10        2.523e-10        1.936e-10      
                    25.0000        1               
  1.730e-06        1.345e-10        2.541e-10        1.943e-10      
                    25.0000        1               
  1.740e-06        1.355e-10        2.571e-10        1.963e-10      
                    25.0000        1               
  1.750e-06        1.341e-10        2.580e-10        1.960e-10      
                    25.0000        1               
  1.760e-06        1.351e-10        2.601e-10        1.976e-10      
                    25.0000        1               
  1.770e-06        1.337e-10        2.619e-10        1.978e-10      
                    25.0000        1               
  1.780e-06        1.328e-10        2.643e-10        1.985e-10      
                    25.0000        1               
  1.790e-06        1.322e-10        2.660e-10        1.991e-10      
                    25.0000        1               
  1.800e-06        1.309e-10        2.681e-10        1.995e-10      
                    25.0000        1               
  1.810e-06        1.305e-10        2.714e-10        2.009e-10      
                    25.0000        1               
  1.820e-06        1.315e-10        2.743e-10        2.029e-10      
                    25.0000        1               
  1.830e-06        1.310e-10        2.747e-10        2.029e-10      
                    25.0000        1               
  1.840e-06        1.312e-10        2.774e-10        2.043e-10      
                    25.0000        1               
  1.850e-06        1.307e-10        2.815e-10        2.061e-10      
                    25.0000        1               
  1.860e-06        1.301e-10        2.817e-10        2.059e-10      
                    25.0000        1               
  1.870e-06        1.302e-10        2.857e-10        2.080e-10      
                    25.0000        1               
  1.880e-06        1.295e-10        2.885e-10        2.090e-10      
                    25.0000        1               
  1.890e-06        1.294e-10        2.908e-10        2.101e-10      
                    25.0000        1               
  1.900e-06        1.293e-10        2.942e-10        2.118e-10      
                    25.0000        1               
  1.910e-06        1.288e-10        2.941e-10        2.115e-10      
                    25.0000        1               
  1.920e-06        1.284e-10        2.972e-10        2.128e-10      
                    25.0000        1               
  1.930e-06        1.283e-10        3.024e-10        2.154e-10      
                    25.0000        1               
  1.940e-06        1.285e-10        3.040e-10        2.162e-10      
                    25.0000        1               
  1.950e-06        1.277e-10        3.082e-10        2.179e-10      
                    25.0000        1               
  1.960e-06        1.274e-10        3.092e-10        2.183e-10      
                    25.0000        1               
  1.970e-06        1.272e-10        3.122e-10        2.197e-10      
                    25.0000        1               
  1.980e-06        1.270e-10        3.161e-10        2.215e-10      
                    25.0000        1               
  1.990e-06        1.268e-10        3.184e-10        2.226e-10      
                    25.0000        1               
  2.000e-06        1.266e-10        3.252e-10        2.259e-10      
                    25.0000        1               
  2.010e-06        1.255e-10        3.262e-10        2.258e-10      
                    25.0000        1               
  2.020e-06        1.260e-10        3.310e-10        2.285e-10      
                    25.0000        1               
  2.030e-06        1.252e-10        3.341e-10        2.297e-10      
                    25.0000        1               
  2.040e-06        1.253e-10        3.380e-10        2.317e-10      
                    25.0000        1               
  2.050e-06        1.231e-10        3.422e-10        2.326e-10      
                    25.0000        1               
  2.060e-06        1.247e-10        3.463e-10        2.355e-10      
                    25.0000        1               
  2.070e-06        1.243e-10        3.489e-10        2.366e-10      
                    25.0000        1               
  2.080e-06        1.238e-10        3.546e-10        2.392e-10      
                    25.0000        1               
  2.090e-06        1.234e-10        3.589e-10        2.412e-10      
                    25.0000        1               
  2.100e-06        1.231e-10        3.635e-10        2.433e-10      
                    25.0000        1               
  2.110e-06        1.227e-10        3.677e-10        2.452e-10      
                    25.0000        1               
  2.120e-06        1.224e-10        3.720e-10        2.472e-10      
                    25.0000        1               
  2.130e-06        1.222e-10        3.775e-10        2.499e-10      
                    25.0000        1               
  2.140e-06        1.220e-10        3.829e-10        2.524e-10      
                    25.0000        1               
  2.150e-06        1.218e-10        3.881e-10        2.549e-10      
                    25.0000        1               
  2.160e-06        1.211e-10        3.921e-10        2.566e-10      
                    25.0000        1               
  2.170e-06        1.213e-10        4.004e-10        2.608e-10      
                    25.0000        1               
  2.180e-06        1.209e-10        4.060e-10        2.634e-10      
                    25.0000        1               
  2.190e-06        1.204e-10        4.124e-10        2.664e-10      
                    25.0000        1               
  2.200e-06        1.217e-10        4.191e-10        2.704e-10      
                    25.0000        1               
  2.210e-06        1.215e-10        4.268e-10        2.742e-10      
                    25.0000        1               
  2.220e-06        1.201e-10        4.336e-10        2.769e-10      
                    25.0000        1               
  2.230e-06        1.201e-10        4.380e-10        2.790e-10      
                    25.0000        1               
  2.240e-06        1.197e-10        4.475e-10        2.836e-10      
                    25.0000        1               
  2.250e-06        1.189e-10        4.548e-10        2.869e-10      
                    25.0000        1               
  2.260e-06        1.192e-10        4.632e-10        2.912e-10      
                    25.0000        1               
  2.270e-06        1.183e-10        4.731e-10        2.957e-10      
                    25.0000        1               
  2.280e-06        1.177e-10        4.800e-10        2.988e-10      
                    25.0000        1               
  2.290e-06        1.188e-10        4.914e-10        3.051e-10      
                    25.0000        1               
  2.300e-06        1.176e-10        4.998e-10        3.087e-10      
                    25.0000        1               
  2.310e-06        1.176e-10        5.089e-10        3.133e-10      
                    25.0000        1               
  2.320e-06        1.172e-10        5.210e-10        3.191e-10      
                    25.0000        1               
  2.330e-06        1.169e-10        5.328e-10        3.249e-10      
                    25.0000        1               
  2.340e-06        1.166e-10        5.460e-10        3.313e-10      
                    25.0000        1               
  2.350e-06        1.164e-10        5.626e-10        3.395e-10      
                    25.0000        1               
  2.360e-06        1.163e-10        5.773e-10        3.468e-10      
                    25.0000        1               
  2.370e-06        1.160e-10        5.922e-10        3.541e-10      
                    25.0000        1               
  2.380e-06        1.159e-10        6.080e-10        3.619e-10      
                    25.0000        1               
  2.390e-06        1.171e-10        6.239e-10        3.705e-10      
                    25.0000        1               
  2.400e-06        1.140e-10        6.474e-10        3.807e-10      
                    25.0000        1               
  2.410e-06        1.152e-10        6.713e-10        3.932e-10      
                    25.0000        1               
  2.420e-06        1.133e-10        6.930e-10        4.032e-10      
                    25.0000        1               
  2.430e-06        1.147e-10        7.229e-10        4.188e-10      
                    25.0000        1               
  2.440e-06        1.148e-10        7.548e-10        4.348e-10      
                    25.0000        1               
  2.450e-06        1.141e-10        7.964e-10        4.553e-10      
                    25.0000        1               
