$DATA1 SOURCE='HSPICE' VERSION='O-2018.09 linux64' PARAM_COUNT=1
.TITLE '**testbench**'
 size             rising_delay     falling_delay    delay_avg       
                  temper           alter#          
  2.500e-07        1.567e-10        3.194e-10        2.381e-10      
                    25.0000        1               
  2.600e-07        1.583e-10        3.119e-10        2.351e-10      
                    25.0000        1               
  2.700e-07        1.587e-10        3.050e-10        2.318e-10      
                    25.0000        1               
  2.800e-07        1.588e-10        2.999e-10        2.293e-10      
                    25.0000        1               
  2.900e-07        1.578e-10        2.922e-10        2.250e-10      
                    25.0000        1               
  3.000e-07        1.587e-10        2.873e-10        2.230e-10      
                    25.0000        1               
  3.100e-07        1.607e-10        2.819e-10        2.213e-10      
                    25.0000        1               
  3.200e-07        1.595e-10        2.771e-10        2.183e-10      
                    25.0000        1               
  3.300e-07        1.615e-10        2.726e-10        2.171e-10      
                    25.0000        1               
  3.400e-07        1.582e-10        2.684e-10        2.133e-10      
                    25.0000        1               
  3.500e-07        1.615e-10        2.643e-10        2.129e-10      
                    25.0000        1               
  3.600e-07        1.600e-10        2.605e-10        2.102e-10      
                    25.0000        1               
  3.700e-07        1.613e-10        2.571e-10        2.092e-10      
                    25.0000        1               
  3.800e-07        1.613e-10        2.537e-10        2.075e-10      
                    25.0000        1               
  3.900e-07        1.614e-10        2.504e-10        2.059e-10      
                    25.0000        1               
  4.000e-07        1.613e-10        2.473e-10        2.043e-10      
                    25.0000        1               
  4.100e-07        1.614e-10        2.444e-10        2.029e-10      
                    25.0000        1               
  4.200e-07        1.613e-10        2.416e-10        2.014e-10      
                    25.0000        1               
  4.300e-07        1.612e-10        2.389e-10        2.000e-10      
                    25.0000        1               
  4.400e-07        1.607e-10        2.363e-10        1.985e-10      
                    25.0000        1               
  4.500e-07        1.626e-10        2.341e-10        1.983e-10      
                    25.0000        1               
  4.600e-07        1.598e-10        2.316e-10        1.957e-10      
                    25.0000        1               
  4.700e-07        1.600e-10        2.294e-10        1.947e-10      
                    25.0000        1               
  4.800e-07        1.637e-10        2.272e-10        1.954e-10      
                    25.0000        1               
  4.900e-07        1.615e-10        2.251e-10        1.933e-10      
                    25.0000        1               
  5.000e-07        1.611e-10        2.231e-10        1.921e-10      
                    25.0000        1               
  5.100e-07        1.612e-10        2.212e-10        1.912e-10      
                    25.0000        1               
  5.200e-07        1.635e-10        2.193e-10        1.914e-10      
                    25.0000        1               
  5.300e-07        1.605e-10        2.175e-10        1.890e-10      
                    25.0000        1               
  5.400e-07        1.623e-10        2.165e-10        1.894e-10      
                    25.0000        1               
  5.500e-07        1.616e-10        2.139e-10        1.878e-10      
                    25.0000        1               
  5.600e-07        1.624e-10        2.123e-10        1.874e-10      
                    25.0000        1               
  5.700e-07        1.618e-10        2.110e-10        1.864e-10      
                    25.0000        1               
  5.800e-07        1.618e-10        2.094e-10        1.856e-10      
                    25.0000        1               
  5.900e-07        1.626e-10        2.080e-10        1.853e-10      
                    25.0000        1               
  6.000e-07        1.622e-10        2.066e-10        1.844e-10      
                    25.0000        1               
  6.100e-07        1.647e-10        2.055e-10        1.851e-10      
                    25.0000        1               
  6.200e-07        1.634e-10        2.038e-10        1.836e-10      
                    25.0000        1               
  6.300e-07        1.629e-10        2.025e-10        1.827e-10      
                    25.0000        1               
  6.400e-07        1.644e-10        2.013e-10        1.829e-10      
                    25.0000        1               
  6.500e-07        1.631e-10        2.002e-10        1.816e-10      
                    25.0000        1               
  6.600e-07        1.632e-10        1.990e-10        1.811e-10      
                    25.0000        1               
  6.700e-07        1.634e-10        1.978e-10        1.806e-10      
                    25.0000        1               
  6.800e-07        1.643e-10        1.969e-10        1.806e-10      
                    25.0000        1               
  6.900e-07        1.639e-10        1.953e-10        1.796e-10      
                    25.0000        1               
  7.000e-07        1.640e-10        1.943e-10        1.791e-10      
                    25.0000        1               
  7.100e-07        1.643e-10        1.931e-10        1.787e-10      
                    25.0000        1               
  7.200e-07        1.645e-10        1.921e-10        1.783e-10      
                    25.0000        1               
  7.300e-07        1.648e-10        1.911e-10        1.779e-10      
                    25.0000        1               
  7.400e-07        1.656e-10        1.898e-10        1.777e-10      
                    25.0000        1               
  7.500e-07        1.653e-10        1.896e-10        1.775e-10      
                    25.0000        1               
  7.600e-07        1.659e-10        1.888e-10        1.774e-10      
                    25.0000        1               
  7.700e-07        1.659e-10        1.879e-10        1.769e-10      
                    25.0000        1               
  7.800e-07        1.659e-10        1.870e-10        1.765e-10      
                    25.0000        1               
  7.900e-07        1.647e-10        1.862e-10        1.755e-10      
                    25.0000        1               
  8.000e-07        1.649e-10        1.854e-10        1.751e-10      
                    25.0000        1               
  8.100e-07        1.661e-10        1.847e-10        1.754e-10      
                    25.0000        1               
  8.200e-07        1.665e-10        1.839e-10        1.752e-10      
                    25.0000        1               
  8.300e-07        1.669e-10        1.831e-10        1.750e-10      
                    25.0000        1               
  8.400e-07        1.674e-10        1.824e-10        1.749e-10      
                    25.0000        1               
  8.500e-07        1.655e-10        1.815e-10        1.735e-10      
                    25.0000        1               
  8.600e-07        1.681e-10        1.809e-10        1.745e-10      
                    25.0000        1               
  8.700e-07        1.698e-10        1.807e-10        1.753e-10      
                    25.0000        1               
  8.800e-07        1.699e-10        1.795e-10        1.747e-10      
                    25.0000        1               
  8.900e-07        1.672e-10        1.789e-10        1.730e-10      
                    25.0000        1               
  9.000e-07        1.683e-10        1.781e-10        1.732e-10      
                    25.0000        1               
  9.100e-07        1.703e-10        1.776e-10        1.739e-10      
                    25.0000        1               
  9.200e-07        1.694e-10        1.769e-10        1.731e-10      
                    25.0000        1               
  9.300e-07        1.680e-10        1.762e-10        1.721e-10      
                    25.0000        1               
  9.400e-07        1.683e-10        1.756e-10        1.720e-10      
                    25.0000        1               
  9.500e-07        1.694e-10        1.751e-10        1.722e-10      
                    25.0000        1               
  9.600e-07        1.690e-10        1.746e-10        1.718e-10      
                    25.0000        1               
  9.700e-07        1.685e-10        1.746e-10        1.716e-10      
                    25.0000        1               
  9.800e-07        1.712e-10        1.736e-10        1.724e-10      
                    25.0000        1               
  9.900e-07        1.700e-10        1.729e-10        1.714e-10      
                    25.0000        1               
  1.000e-06        1.695e-10        1.723e-10        1.709e-10      
                    25.0000        1               
  1.010e-06        1.692e-10        1.718e-10        1.705e-10      
                    25.0000        1               
  1.020e-06        1.718e-10        1.713e-10        1.716e-10      
                    25.0000        1               
  1.030e-06        1.733e-10        1.707e-10        1.720e-10      
                    25.0000        1               
  1.040e-06        1.708e-10        1.703e-10        1.706e-10      
                    25.0000        1               
  1.050e-06        1.722e-10        1.697e-10        1.709e-10      
                    25.0000        1               
  1.060e-06        1.724e-10        1.692e-10        1.708e-10      
                    25.0000        1               
  1.070e-06        1.704e-10        1.688e-10        1.696e-10      
                    25.0000        1               
  1.080e-06        1.741e-10        1.683e-10        1.712e-10      
                    25.0000        1               
  1.090e-06        1.718e-10        1.679e-10        1.698e-10      
                    25.0000        1               
  1.100e-06        1.712e-10        1.672e-10        1.692e-10      
                    25.0000        1               
  1.110e-06        1.732e-10        1.675e-10        1.703e-10      
                    25.0000        1               
  1.120e-06        1.718e-10        1.665e-10        1.692e-10      
                    25.0000        1               
  1.130e-06        1.720e-10        1.662e-10        1.691e-10      
                    25.0000        1               
  1.140e-06        1.702e-10        1.658e-10        1.680e-10      
                    25.0000        1               
  1.150e-06        1.710e-10        1.646e-10        1.678e-10      
                    25.0000        1               
  1.160e-06        1.718e-10        1.643e-10        1.681e-10      
                    25.0000        1               
  1.170e-06        1.720e-10        1.639e-10        1.680e-10      
                    25.0000        1               
  1.180e-06        1.721e-10        1.634e-10        1.678e-10      
                    25.0000        1               
  1.190e-06        1.704e-10        1.635e-10        1.670e-10      
                    25.0000        1               
  1.200e-06        1.740e-10        1.634e-10        1.687e-10      
                    25.0000        1               
  1.210e-06        1.735e-10        1.622e-10        1.679e-10      
                    25.0000        1               
  1.220e-06        1.729e-10        1.619e-10        1.674e-10      
                    25.0000        1               
  1.230e-06        1.738e-10        1.623e-10        1.681e-10      
                    25.0000        1               
  1.240e-06        1.719e-10        1.621e-10        1.670e-10      
                    25.0000        1               
  1.250e-06        1.749e-10        1.616e-10        1.683e-10      
                    25.0000        1               
  1.260e-06        1.745e-10        1.609e-10        1.677e-10      
                    25.0000        1               
  1.270e-06        1.746e-10        1.606e-10        1.676e-10      
                    25.0000        1               
  1.280e-06        1.756e-10        1.603e-10        1.680e-10      
                    25.0000        1               
  1.290e-06        1.756e-10        1.603e-10        1.680e-10      
                    25.0000        1               
  1.300e-06        1.758e-10        1.596e-10        1.677e-10      
                    25.0000        1               
  1.310e-06        1.761e-10        1.591e-10        1.676e-10      
                    25.0000        1               
  1.320e-06        1.760e-10        1.593e-10        1.676e-10      
                    25.0000        1               
  1.330e-06        1.762e-10        1.586e-10        1.674e-10      
                    25.0000        1               
  1.340e-06        1.738e-10        1.582e-10        1.660e-10      
                    25.0000        1               
  1.350e-06        1.739e-10        1.579e-10        1.659e-10      
                    25.0000        1               
  1.360e-06        1.741e-10        1.576e-10        1.659e-10      
                    25.0000        1               
  1.370e-06        1.767e-10        1.577e-10        1.672e-10      
                    25.0000        1               
  1.380e-06        1.754e-10        1.577e-10        1.665e-10      
                    25.0000        1               
  1.390e-06        1.771e-10        1.569e-10        1.670e-10      
                    25.0000        1               
  1.400e-06        1.756e-10        1.566e-10        1.661e-10      
                    25.0000        1               
  1.410e-06        1.753e-10        1.557e-10        1.655e-10      
                    25.0000        1               
  1.420e-06        1.758e-10        1.560e-10        1.659e-10      
                    25.0000        1               
  1.430e-06        1.754e-10        1.563e-10        1.659e-10      
                    25.0000        1               
  1.440e-06        1.759e-10        1.555e-10        1.657e-10      
                    25.0000        1               
  1.450e-06        1.741e-10        1.557e-10        1.649e-10      
                    25.0000        1               
  1.460e-06        1.753e-10        1.560e-10        1.657e-10      
                    25.0000        1               
  1.470e-06        1.747e-10        1.547e-10        1.647e-10      
                    25.0000        1               
  1.480e-06        1.749e-10        1.544e-10        1.646e-10      
                    25.0000        1               
  1.490e-06        1.759e-10        1.536e-10        1.648e-10      
                    25.0000        1               
  1.500e-06        1.761e-10        1.534e-10        1.647e-10      
                    25.0000        1               
  1.510e-06        1.753e-10        1.536e-10        1.645e-10      
                    25.0000        1               
  1.520e-06        1.754e-10        1.534e-10        1.644e-10      
                    25.0000        1               
  1.530e-06        1.772e-10        1.539e-10        1.655e-10      
                    25.0000        1               
  1.540e-06        1.766e-10        1.524e-10        1.645e-10      
                    25.0000        1               
  1.550e-06        1.768e-10        1.529e-10        1.649e-10      
                    25.0000        1               
  1.560e-06        1.769e-10        1.522e-10        1.645e-10      
                    25.0000        1               
  1.570e-06        1.779e-10        1.529e-10        1.654e-10      
                    25.0000        1               
  1.580e-06        1.780e-10        1.527e-10        1.654e-10      
                    25.0000        1               
  1.590e-06        1.782e-10        1.525e-10        1.653e-10      
                    25.0000        1               
  1.600e-06        1.783e-10        1.523e-10        1.653e-10      
                    25.0000        1               
  1.610e-06        1.785e-10        1.520e-10        1.653e-10      
                    25.0000        1               
  1.620e-06        1.786e-10        1.518e-10        1.652e-10      
                    25.0000        1               
  1.630e-06        1.788e-10        1.516e-10        1.652e-10      
                    25.0000        1               
  1.640e-06        1.780e-10        1.506e-10        1.643e-10      
                    25.0000        1               
  1.650e-06        1.790e-10        1.478e-10        1.634e-10      
                    25.0000        1               
  1.660e-06        1.792e-10        1.482e-10        1.637e-10      
                    25.0000        1               
  1.670e-06        1.795e-10        1.503e-10        1.649e-10      
                    25.0000        1               
  1.680e-06        1.796e-10        1.501e-10        1.649e-10      
                    25.0000        1               
  1.690e-06        1.798e-10        1.502e-10        1.650e-10      
                    25.0000        1               
  1.700e-06        1.801e-10        1.501e-10        1.651e-10      
                    25.0000        1               
  1.710e-06        1.805e-10        1.499e-10        1.652e-10      
                    25.0000        1               
  1.720e-06        1.786e-10        1.498e-10        1.642e-10      
                    25.0000        1               
  1.730e-06        1.787e-10        1.496e-10        1.642e-10      
                    25.0000        1               
  1.740e-06        1.789e-10        1.494e-10        1.641e-10      
                    25.0000        1               
  1.750e-06        1.807e-10        1.492e-10        1.650e-10      
                    25.0000        1               
  1.760e-06        1.807e-10        1.490e-10        1.649e-10      
                    25.0000        1               
  1.770e-06        1.807e-10        1.488e-10        1.648e-10      
                    25.0000        1               
  1.780e-06        1.809e-10        1.486e-10        1.647e-10      
                    25.0000        1               
  1.790e-06        1.810e-10        1.485e-10        1.647e-10      
                    25.0000        1               
  1.800e-06        1.811e-10        1.483e-10        1.647e-10      
                    25.0000        1               
  1.810e-06        1.813e-10        1.481e-10        1.647e-10      
                    25.0000        1               
  1.820e-06        1.815e-10        1.479e-10        1.647e-10      
                    25.0000        1               
  1.830e-06        1.817e-10        1.478e-10        1.647e-10      
                    25.0000        1               
  1.840e-06        1.819e-10        1.476e-10        1.647e-10      
                    25.0000        1               
  1.850e-06        1.825e-10        1.475e-10        1.650e-10      
                    25.0000        1               
  1.860e-06        1.826e-10        1.473e-10        1.650e-10      
                    25.0000        1               
  1.870e-06        1.828e-10        1.471e-10        1.650e-10      
                    25.0000        1               
  1.880e-06        1.829e-10        1.470e-10        1.649e-10      
                    25.0000        1               
  1.890e-06        1.831e-10        1.468e-10        1.649e-10      
                    25.0000        1               
  1.900e-06        1.830e-10        1.466e-10        1.648e-10      
                    25.0000        1               
  1.910e-06        1.834e-10        1.465e-10        1.650e-10      
                    25.0000        1               
  1.920e-06        1.825e-10        1.462e-10        1.644e-10      
                    25.0000        1               
  1.930e-06        1.827e-10        1.461e-10        1.644e-10      
                    25.0000        1               
  1.940e-06        1.828e-10        1.460e-10        1.644e-10      
                    25.0000        1               
  1.950e-06        1.829e-10        1.459e-10        1.644e-10      
                    25.0000        1               
  1.960e-06        1.830e-10        1.457e-10        1.644e-10      
                    25.0000        1               
  1.970e-06        1.831e-10        1.456e-10        1.644e-10      
                    25.0000        1               
  1.980e-06        1.832e-10        1.455e-10        1.644e-10      
                    25.0000        1               
  1.990e-06        1.834e-10        1.454e-10        1.644e-10      
                    25.0000        1               
  2.000e-06        1.835e-10        1.453e-10        1.644e-10      
                    25.0000        1               
  2.010e-06        1.836e-10        1.452e-10        1.644e-10      
                    25.0000        1               
  2.020e-06        1.838e-10        1.449e-10        1.643e-10      
                    25.0000        1               
  2.030e-06        1.839e-10        1.447e-10        1.643e-10      
                    25.0000        1               
  2.040e-06        1.840e-10        1.445e-10        1.642e-10      
                    25.0000        1               
  2.050e-06        1.842e-10        1.443e-10        1.642e-10      
                    25.0000        1               
  2.060e-06        1.843e-10        1.441e-10        1.642e-10      
                    25.0000        1               
  2.070e-06        1.844e-10        1.439e-10        1.642e-10      
                    25.0000        1               
  2.080e-06        1.846e-10        1.438e-10        1.642e-10      
                    25.0000        1               
  2.090e-06        1.847e-10        1.440e-10        1.643e-10      
                    25.0000        1               
  2.100e-06        1.849e-10        1.440e-10        1.644e-10      
                    25.0000        1               
  2.110e-06        1.850e-10        1.436e-10        1.643e-10      
                    25.0000        1               
  2.120e-06        1.851e-10        1.438e-10        1.644e-10      
                    25.0000        1               
  2.130e-06        1.867e-10        1.434e-10        1.650e-10      
                    25.0000        1               
  2.140e-06        1.855e-10        1.433e-10        1.644e-10      
                    25.0000        1               
  2.150e-06        1.865e-10        1.432e-10        1.648e-10      
                    25.0000        1               
  2.160e-06        1.848e-10        1.431e-10        1.639e-10      
                    25.0000        1               
  2.170e-06        1.867e-10        1.429e-10        1.648e-10      
                    25.0000        1               
  2.180e-06        1.869e-10        1.430e-10        1.649e-10      
                    25.0000        1               
  2.190e-06        1.880e-10        1.439e-10        1.660e-10      
                    25.0000        1               
  2.200e-06        1.882e-10        1.437e-10        1.659e-10      
                    25.0000        1               
  2.210e-06        1.876e-10        1.425e-10        1.651e-10      
                    25.0000        1               
  2.220e-06        1.876e-10        1.424e-10        1.650e-10      
                    25.0000        1               
  2.230e-06        1.879e-10        1.422e-10        1.651e-10      
                    25.0000        1               
  2.240e-06        1.870e-10        1.421e-10        1.645e-10      
                    25.0000        1               
  2.250e-06        1.885e-10        1.420e-10        1.652e-10      
                    25.0000        1               
  2.260e-06        1.873e-10        1.419e-10        1.646e-10      
                    25.0000        1               
  2.270e-06        1.874e-10        1.418e-10        1.646e-10      
                    25.0000        1               
  2.280e-06        1.865e-10        1.417e-10        1.641e-10      
                    25.0000        1               
  2.290e-06        1.890e-10        1.416e-10        1.653e-10      
                    25.0000        1               
  2.300e-06        1.897e-10        1.415e-10        1.656e-10      
                    25.0000        1               
  2.310e-06        1.870e-10        1.414e-10        1.642e-10      
                    25.0000        1               
  2.320e-06        1.871e-10        1.413e-10        1.642e-10      
                    25.0000        1               
  2.330e-06        1.901e-10        1.412e-10        1.657e-10      
                    25.0000        1               
  2.340e-06        1.902e-10        1.411e-10        1.657e-10      
                    25.0000        1               
  2.350e-06        1.886e-10        1.414e-10        1.650e-10      
                    25.0000        1               
  2.360e-06        1.888e-10        1.413e-10        1.650e-10      
                    25.0000        1               
  2.370e-06        1.907e-10        1.409e-10        1.658e-10      
                    25.0000        1               
  2.380e-06        1.908e-10        1.408e-10        1.658e-10      
                    25.0000        1               
  2.390e-06        1.910e-10        1.407e-10        1.658e-10      
                    25.0000        1               
  2.400e-06        1.894e-10        1.404e-10        1.649e-10      
                    25.0000        1               
  2.410e-06        1.895e-10        1.407e-10        1.651e-10      
                    25.0000        1               
  2.420e-06        1.897e-10        1.404e-10        1.650e-10      
                    25.0000        1               
  2.430e-06        1.919e-10        1.402e-10        1.661e-10      
                    25.0000        1               
  2.440e-06        1.921e-10        1.401e-10        1.661e-10      
                    25.0000        1               
  2.450e-06        1.913e-10        1.400e-10        1.657e-10      
                    25.0000        1               
  2.460e-06        1.925e-10        1.399e-10        1.662e-10      
                    25.0000        1               
  2.470e-06        1.926e-10        1.399e-10        1.663e-10      
                    25.0000        1               
  2.480e-06        1.924e-10        1.399e-10        1.661e-10      
                    25.0000        1               
  2.490e-06        1.925e-10        1.399e-10        1.662e-10      
                    25.0000        1               
  2.500e-06        1.926e-10        1.400e-10        1.663e-10      
                    25.0000        1               
  2.510e-06        1.928e-10        1.397e-10        1.662e-10      
                    25.0000        1               
  2.520e-06        1.929e-10        1.396e-10        1.663e-10      
                    25.0000        1               
  2.530e-06        1.931e-10        1.395e-10        1.663e-10      
                    25.0000        1               
  2.540e-06        1.933e-10        1.403e-10        1.668e-10      
                    25.0000        1               
  2.550e-06        1.934e-10        1.396e-10        1.665e-10      
                    25.0000        1               
  2.560e-06        1.936e-10        1.394e-10        1.665e-10      
                    25.0000        1               
  2.570e-06        1.937e-10        1.392e-10        1.665e-10      
                    25.0000        1               
  2.580e-06        1.939e-10        1.391e-10        1.665e-10      
                    25.0000        1               
  2.590e-06        1.941e-10        1.389e-10        1.665e-10      
                    25.0000        1               
  2.600e-06        1.942e-10        1.388e-10        1.665e-10      
                    25.0000        1               
  2.610e-06        1.944e-10        1.388e-10        1.666e-10      
                    25.0000        1               
  2.620e-06        1.945e-10        1.393e-10        1.669e-10      
                    25.0000        1               
  2.630e-06        1.947e-10        1.388e-10        1.667e-10      
                    25.0000        1               
  2.640e-06        1.949e-10        1.387e-10        1.668e-10      
                    25.0000        1               
  2.650e-06        1.950e-10        1.389e-10        1.669e-10      
                    25.0000        1               
  2.660e-06        1.952e-10        1.387e-10        1.669e-10      
                    25.0000        1               
  2.670e-06        1.952e-10        1.385e-10        1.668e-10      
                    25.0000        1               
  2.680e-06        1.953e-10        1.382e-10        1.668e-10      
                    25.0000        1               
  2.690e-06        1.955e-10        1.381e-10        1.668e-10      
                    25.0000        1               
  2.700e-06        1.956e-10        1.380e-10        1.668e-10      
                    25.0000        1               
  2.710e-06        1.958e-10        1.380e-10        1.669e-10      
                    25.0000        1               
  2.720e-06        1.942e-10        1.377e-10        1.659e-10      
                    25.0000        1               
  2.730e-06        1.967e-10        1.378e-10        1.673e-10      
                    25.0000        1               
  2.740e-06        1.969e-10        1.378e-10        1.673e-10      
                    25.0000        1               
  2.750e-06        1.970e-10        1.394e-10        1.682e-10      
                    25.0000        1               
  2.760e-06        1.972e-10        1.396e-10        1.684e-10      
                    25.0000        1               
  2.770e-06        1.973e-10        1.395e-10        1.684e-10      
                    25.0000        1               
  2.780e-06        1.975e-10        1.395e-10        1.685e-10      
                    25.0000        1               
  2.790e-06        1.976e-10        1.389e-10        1.683e-10      
                    25.0000        1               
  2.800e-06        1.978e-10        1.391e-10        1.684e-10      
                    25.0000        1               
  2.810e-06        1.979e-10        1.391e-10        1.685e-10      
                    25.0000        1               
  2.820e-06        1.956e-10        1.372e-10        1.664e-10      
                    25.0000        1               
  2.830e-06        1.958e-10        1.371e-10        1.665e-10      
                    25.0000        1               
  2.840e-06        1.959e-10        1.371e-10        1.665e-10      
                    25.0000        1               
  2.850e-06        1.961e-10        1.370e-10        1.665e-10      
                    25.0000        1               
  2.860e-06        1.962e-10        1.370e-10        1.666e-10      
                    25.0000        1               
  2.870e-06        1.964e-10        1.369e-10        1.666e-10      
                    25.0000        1               
  2.880e-06        1.965e-10        1.368e-10        1.667e-10      
                    25.0000        1               
  2.890e-06        1.967e-10        1.368e-10        1.667e-10      
                    25.0000        1               
  2.900e-06        1.968e-10        1.367e-10        1.668e-10      
                    25.0000        1               
  2.910e-06        1.970e-10        1.366e-10        1.668e-10      
                    25.0000        1               
  2.920e-06        1.971e-10        1.366e-10        1.669e-10      
                    25.0000        1               
  2.930e-06        1.973e-10        1.365e-10        1.669e-10      
                    25.0000        1               
  2.940e-06        1.975e-10        1.365e-10        1.670e-10      
                    25.0000        1               
  2.950e-06        1.976e-10        1.364e-10        1.670e-10      
                    25.0000        1               
  2.960e-06        1.978e-10        1.364e-10        1.671e-10      
                    25.0000        1               
  2.970e-06        1.986e-10        1.379e-10        1.683e-10      
                    25.0000        1               
  2.980e-06        1.980e-10        1.362e-10        1.671e-10      
                    25.0000        1               
  2.990e-06        1.998e-10        1.362e-10        1.680e-10      
                    25.0000        1               
  3.000e-06        1.984e-10        1.361e-10        1.673e-10      
                    25.0000        1               
  3.010e-06        1.986e-10        1.361e-10        1.673e-10      
                    25.0000        1               
  3.020e-06        1.987e-10        1.360e-10        1.674e-10      
                    25.0000        1               
  3.030e-06        1.989e-10        1.360e-10        1.674e-10      
                    25.0000        1               
  3.040e-06        1.991e-10        1.366e-10        1.678e-10      
                    25.0000        1               
  3.050e-06        1.992e-10        1.359e-10        1.675e-10      
                    25.0000        1               
  3.060e-06        1.994e-10        1.358e-10        1.676e-10      
                    25.0000        1               
  3.070e-06        1.995e-10        1.358e-10        1.677e-10      
                    25.0000        1               
  3.080e-06        1.997e-10        1.362e-10        1.679e-10      
                    25.0000        1               
  3.090e-06        1.997e-10        1.361e-10        1.679e-10      
                    25.0000        1               
  3.100e-06        1.999e-10        1.364e-10        1.682e-10      
                    25.0000        1               
  3.110e-06        2.003e-10        1.364e-10        1.683e-10      
                    25.0000        1               
  3.120e-06        2.004e-10        1.362e-10        1.683e-10      
                    25.0000        1               
  3.130e-06        2.006e-10        1.362e-10        1.684e-10      
                    25.0000        1               
  3.140e-06        2.006e-10        1.360e-10        1.683e-10      
                    25.0000        1               
  3.150e-06        2.005e-10        1.359e-10        1.682e-10      
                    25.0000        1               
  3.160e-06        2.007e-10        1.360e-10        1.683e-10      
                    25.0000        1               
  3.170e-06        2.010e-10        1.352e-10        1.681e-10      
                    25.0000        1               
  3.180e-06        2.012e-10        1.353e-10        1.682e-10      
                    25.0000        1               
  3.190e-06        2.015e-10        1.361e-10        1.688e-10      
                    25.0000        1               
  3.200e-06        2.017e-10        1.354e-10        1.685e-10      
                    25.0000        1               
  3.210e-06        2.018e-10        1.351e-10        1.685e-10      
                    25.0000        1               
  3.220e-06        2.020e-10        1.350e-10        1.685e-10      
                    25.0000        1               
  3.230e-06        2.022e-10        1.350e-10        1.686e-10      
                    25.0000        1               
  3.240e-06        2.032e-10        1.349e-10        1.691e-10      
                    25.0000        1               
  3.250e-06        2.024e-10        1.349e-10        1.687e-10      
                    25.0000        1               
  3.260e-06        2.026e-10        1.349e-10        1.687e-10      
                    25.0000        1               
  3.270e-06        2.035e-10        1.348e-10        1.692e-10      
                    25.0000        1               
  3.280e-06        2.035e-10        1.348e-10        1.691e-10      
                    25.0000        1               
  3.290e-06        2.040e-10        1.348e-10        1.694e-10      
                    25.0000        1               
  3.300e-06        2.034e-10        1.347e-10        1.690e-10      
                    25.0000        1               
  3.310e-06        2.042e-10        1.346e-10        1.694e-10      
                    25.0000        1               
  3.320e-06        2.129e-10        1.346e-10        1.738e-10      
                    25.0000        1               
  3.330e-06        2.037e-10        1.345e-10        1.691e-10      
                    25.0000        1               
  3.340e-06        2.036e-10        1.345e-10        1.690e-10      
                    25.0000        1               
  3.350e-06        2.038e-10        1.345e-10        1.691e-10      
                    25.0000        1               
  3.360e-06        2.041e-10        1.344e-10        1.693e-10      
                    25.0000        1               
  3.370e-06        2.029e-10        1.344e-10        1.687e-10      
                    25.0000        1               
  3.380e-06        2.044e-10        1.344e-10        1.694e-10      
                    25.0000        1               
  3.390e-06        2.045e-10        1.344e-10        1.695e-10      
                    25.0000        1               
  3.400e-06        2.054e-10        1.343e-10        1.698e-10      
                    25.0000        1               
  3.410e-06        2.058e-10        1.343e-10        1.700e-10      
                    25.0000        1               
  3.420e-06        2.056e-10        1.342e-10        1.699e-10      
                    25.0000        1               
  3.430e-06        2.058e-10        1.341e-10        1.700e-10      
                    25.0000        1               
  3.440e-06        2.050e-10        1.343e-10        1.696e-10      
                    25.0000        1               
  3.450e-06        2.038e-10        1.342e-10        1.690e-10      
                    25.0000        1               
  3.460e-06        2.054e-10        1.340e-10        1.697e-10      
                    25.0000        1               
  3.470e-06        2.056e-10        1.340e-10        1.698e-10      
                    25.0000        1               
  3.480e-06        2.043e-10        1.347e-10        1.695e-10      
                    25.0000        1               
  3.490e-06        2.044e-10        1.346e-10        1.695e-10      
                    25.0000        1               
  3.500e-06        2.059e-10        1.346e-10        1.702e-10      
                    25.0000        1               
  3.510e-06        2.069e-10        1.339e-10        1.704e-10      
                    25.0000        1               
  3.520e-06        2.059e-10        1.362e-10        1.710e-10      
                    25.0000        1               
  3.530e-06        2.066e-10        1.344e-10        1.705e-10      
                    25.0000        1               
  3.540e-06        2.066e-10        1.337e-10        1.702e-10      
                    25.0000        1               
  3.550e-06        2.053e-10        1.345e-10        1.699e-10      
                    25.0000        1               
  3.560e-06        2.055e-10        1.344e-10        1.699e-10      
                    25.0000        1               
  3.570e-06        2.078e-10        1.337e-10        1.707e-10      
                    25.0000        1               
  3.580e-06        2.074e-10        1.360e-10        1.717e-10      
                    25.0000        1               
  3.590e-06        2.073e-10        1.336e-10        1.704e-10      
                    25.0000        1               
  3.600e-06        2.075e-10        1.335e-10        1.705e-10      
                    25.0000        1               
  3.610e-06        2.077e-10        1.360e-10        1.718e-10      
                    25.0000        1               
  3.620e-06        2.079e-10        1.359e-10        1.719e-10      
                    25.0000        1               
  3.630e-06        2.079e-10        1.335e-10        1.707e-10      
                    25.0000        1               
  3.640e-06        2.067e-10        1.342e-10        1.705e-10      
                    25.0000        1               
  3.650e-06        2.078e-10        1.343e-10        1.711e-10      
                    25.0000        1               
  3.660e-06        2.093e-10        1.334e-10        1.713e-10      
                    25.0000        1               
  3.670e-06        2.087e-10        1.333e-10        1.710e-10      
                    25.0000        1               
  3.680e-06        2.098e-10        1.340e-10        1.719e-10      
                    25.0000        1               
  3.690e-06        2.096e-10        1.340e-10        1.718e-10      
                    25.0000        1               
  3.700e-06        2.088e-10        1.332e-10        1.710e-10      
                    25.0000        1               
  3.710e-06        2.090e-10        1.332e-10        1.711e-10      
                    25.0000        1               
  3.720e-06        2.102e-10        1.332e-10        1.717e-10      
                    25.0000        1               
  3.730e-06        2.104e-10        1.331e-10        1.718e-10      
                    25.0000        1               
  3.740e-06        2.104e-10        1.332e-10        1.718e-10      
                    25.0000        1               
  3.750e-06        2.104e-10        1.339e-10        1.721e-10      
                    25.0000        1               
  3.760e-06        2.106e-10        1.333e-10        1.719e-10      
                    25.0000        1               
  3.770e-06        2.107e-10        1.337e-10        1.722e-10      
                    25.0000        1               
  3.780e-06        2.112e-10        1.305e-10        1.709e-10      
                    25.0000        1               
  3.790e-06        2.114e-10        1.330e-10        1.722e-10      
                    25.0000        1               
  3.800e-06        2.100e-10        1.330e-10        1.715e-10      
                    25.0000        1               
  3.810e-06        2.123e-10        1.329e-10        1.726e-10      
                    25.0000        1               
  3.820e-06        2.118e-10        1.333e-10        1.725e-10      
                    25.0000        1               
  3.830e-06        2.118e-10        1.332e-10        1.725e-10      
                    25.0000        1               
  3.840e-06        2.106e-10        1.328e-10        1.717e-10      
                    25.0000        1               
  3.850e-06        2.121e-10        1.341e-10        1.731e-10      
                    25.0000        1               
  3.860e-06        2.123e-10        1.336e-10        1.730e-10      
                    25.0000        1               
  3.870e-06        2.124e-10        1.336e-10        1.730e-10      
                    25.0000        1               
  3.880e-06        2.127e-10        1.336e-10        1.731e-10      
                    25.0000        1               
  3.890e-06        2.129e-10        1.338e-10        1.734e-10      
                    25.0000        1               
  3.900e-06        2.123e-10        1.327e-10        1.725e-10      
                    25.0000        1               
  3.910e-06        2.135e-10        1.339e-10        1.737e-10      
                    25.0000        1               
  3.920e-06        2.133e-10        1.335e-10        1.734e-10      
                    25.0000        1               
  3.930e-06        2.134e-10        1.331e-10        1.733e-10      
                    25.0000        1               
  3.940e-06        2.135e-10        1.334e-10        1.734e-10      
                    25.0000        1               
  3.950e-06        2.136e-10        1.334e-10        1.735e-10      
                    25.0000        1               
  3.960e-06        2.144e-10        1.325e-10        1.735e-10      
                    25.0000        1               
  3.970e-06        2.139e-10        1.334e-10        1.736e-10      
                    25.0000        1               
  3.980e-06        2.141e-10        1.333e-10        1.737e-10      
                    25.0000        1               
  3.990e-06        2.150e-10        1.325e-10        1.738e-10      
                    25.0000        1               
  4.000e-06        2.136e-10        1.325e-10        1.730e-10      
                    25.0000        1               
