$DATA1 SOURCE='HSPICE' VERSION='O-2018.09 linux64' PARAM_COUNT=1
.TITLE '**testbench**'
 size             rising_delay     falling_delay    delay_avg       
                  temper           alter#          
  2.500e-07        1.022e-09        1.036e-10        5.625e-10      
                    25.0000        1               
  2.600e-07        9.787e-10        1.035e-10        5.411e-10      
                    25.0000        1               
  2.700e-07        9.391e-10        1.034e-10        5.213e-10      
                    25.0000        1               
  2.800e-07        9.066e-10        1.036e-10        5.051e-10      
                    25.0000        1               
  2.900e-07        8.768e-10        1.041e-10        4.904e-10      
                    25.0000        1               
  3.000e-07        8.489e-10        1.040e-10        4.764e-10      
                    25.0000        1               
  3.100e-07        8.235e-10        1.043e-10        4.639e-10      
                    25.0000        1               
  3.200e-07        8.026e-10        1.038e-10        4.532e-10      
                    25.0000        1               
  3.300e-07        7.793e-10        1.041e-10        4.417e-10      
                    25.0000        1               
  3.400e-07        7.596e-10        1.026e-10        4.311e-10      
                    25.0000        1               
  3.500e-07        7.406e-10        1.047e-10        4.226e-10      
                    25.0000        1               
  3.600e-07        7.236e-10        1.049e-10        4.142e-10      
                    25.0000        1               
  3.700e-07        7.084e-10        1.049e-10        4.067e-10      
                    25.0000        1               
  3.800e-07        6.920e-10        1.047e-10        3.983e-10      
                    25.0000        1               
  3.900e-07        6.777e-10        1.049e-10        3.913e-10      
                    25.0000        1               
  4.000e-07        6.636e-10        1.055e-10        3.846e-10      
                    25.0000        1               
  4.100e-07        6.538e-10        1.056e-10        3.797e-10      
                    25.0000        1               
  4.200e-07        6.386e-10        1.055e-10        3.721e-10      
                    25.0000        1               
  4.300e-07        6.288e-10        1.052e-10        3.670e-10      
                    25.0000        1               
  4.400e-07        6.161e-10        1.058e-10        3.610e-10      
                    25.0000        1               
  4.500e-07        6.082e-10        1.057e-10        3.569e-10      
                    25.0000        1               
  4.600e-07        5.946e-10        1.061e-10        3.503e-10      
                    25.0000        1               
  4.700e-07        5.873e-10        1.061e-10        3.467e-10      
                    25.0000        1               
  4.800e-07        5.768e-10        1.037e-10        3.402e-10      
                    25.0000        1               
  4.900e-07        5.692e-10        1.065e-10        3.378e-10      
                    25.0000        1               
  5.000e-07        5.596e-10        1.061e-10        3.329e-10      
                    25.0000        1               
  5.100e-07        5.524e-10        1.066e-10        3.295e-10      
                    25.0000        1               
  5.200e-07        5.418e-10        1.068e-10        3.243e-10      
                    25.0000        1               
  5.300e-07        5.347e-10        1.069e-10        3.208e-10      
                    25.0000        1               
  5.400e-07        5.293e-10        1.067e-10        3.180e-10      
                    25.0000        1               
  5.500e-07        5.223e-10        1.066e-10        3.145e-10      
                    25.0000        1               
  5.600e-07        5.140e-10        1.069e-10        3.104e-10      
                    25.0000        1               
  5.700e-07        5.071e-10        1.070e-10        3.071e-10      
                    25.0000        1               
  5.800e-07        5.018e-10        1.076e-10        3.047e-10      
                    25.0000        1               
  5.900e-07        4.961e-10        1.076e-10        3.019e-10      
                    25.0000        1               
  6.000e-07        4.890e-10        1.073e-10        2.981e-10      
                    25.0000        1               
  6.100e-07        4.821e-10        1.080e-10        2.950e-10      
                    25.0000        1               
  6.200e-07        4.747e-10        1.080e-10        2.914e-10      
                    25.0000        1               
  6.300e-07        4.723e-10        1.083e-10        2.903e-10      
                    25.0000        1               
  6.400e-07        4.656e-10        1.081e-10        2.868e-10      
                    25.0000        1               
  6.500e-07        4.618e-10        1.086e-10        2.852e-10      
                    25.0000        1               
  6.600e-07        4.543e-10        1.079e-10        2.811e-10      
                    25.0000        1               
  6.700e-07        4.507e-10        1.087e-10        2.797e-10      
                    25.0000        1               
  6.800e-07        4.473e-10        1.085e-10        2.779e-10      
                    25.0000        1               
  6.900e-07        4.412e-10        1.090e-10        2.751e-10      
                    25.0000        1               
  7.000e-07        4.369e-10        1.088e-10        2.728e-10      
                    25.0000        1               
  7.100e-07        4.307e-10        1.091e-10        2.699e-10      
                    25.0000        1               
  7.200e-07        4.292e-10        1.090e-10        2.691e-10      
                    25.0000        1               
  7.300e-07        4.225e-10        1.091e-10        2.658e-10      
                    25.0000        1               
  7.400e-07        4.200e-10        1.095e-10        2.648e-10      
                    25.0000        1               
  7.500e-07        4.173e-10        1.093e-10        2.633e-10      
                    25.0000        1               
  7.600e-07        4.107e-10        1.097e-10        2.602e-10      
                    25.0000        1               
  7.700e-07        4.077e-10        1.099e-10        2.588e-10      
                    25.0000        1               
  7.800e-07        4.064e-10        1.096e-10        2.580e-10      
                    25.0000        1               
  7.900e-07        3.992e-10        1.103e-10        2.547e-10      
                    25.0000        1               
  8.000e-07        3.963e-10        1.095e-10        2.529e-10      
                    25.0000        1               
  8.100e-07        3.943e-10        1.096e-10        2.520e-10      
                    25.0000        1               
  8.200e-07        3.916e-10        1.107e-10        2.511e-10      
                    25.0000        1               
  8.300e-07        3.878e-10        1.108e-10        2.493e-10      
                    25.0000        1               
  8.400e-07        3.856e-10        1.103e-10        2.479e-10      
                    25.0000        1               
  8.500e-07        3.832e-10        1.103e-10        2.467e-10      
                    25.0000        1               
  8.600e-07        3.779e-10        1.108e-10        2.443e-10      
                    25.0000        1               
  8.700e-07        3.752e-10        1.107e-10        2.430e-10      
                    25.0000        1               
  8.800e-07        3.731e-10        1.111e-10        2.421e-10      
                    25.0000        1               
  8.900e-07        3.693e-10        1.107e-10        2.400e-10      
                    25.0000        1               
  9.000e-07        3.679e-10        1.117e-10        2.398e-10      
                    25.0000        1               
  9.100e-07        3.630e-10        1.114e-10        2.372e-10      
                    25.0000        1               
  9.200e-07        3.629e-10        1.119e-10        2.374e-10      
                    25.0000        1               
  9.300e-07        3.534e-10        1.119e-10        2.326e-10      
                    25.0000        1               
  9.400e-07        3.567e-10        1.121e-10        2.344e-10      
                    25.0000        1               
  9.500e-07        3.520e-10        1.116e-10        2.318e-10      
                    25.0000        1               
  9.600e-07        3.497e-10        1.123e-10        2.310e-10      
                    25.0000        1               
  9.700e-07        3.482e-10        1.120e-10        2.301e-10      
                    25.0000        1               
  9.800e-07        3.470e-10        1.126e-10        2.298e-10      
                    25.0000        1               
  9.900e-07        3.430e-10        1.120e-10        2.275e-10      
                    25.0000        1               
  1.000e-06        3.424e-10        1.127e-10        2.275e-10      
                    25.0000        1               
  1.010e-06        3.380e-10        1.129e-10        2.255e-10      
                    25.0000        1               
  1.020e-06        3.393e-10        1.136e-10        2.264e-10      
                    25.0000        1               
  1.030e-06        3.355e-10        1.125e-10        2.240e-10      
                    25.0000        1               
  1.040e-06        3.316e-10        1.133e-10        2.225e-10      
                    25.0000        1               
  1.050e-06        3.295e-10        1.131e-10        2.213e-10      
                    25.0000        1               
  1.060e-06        3.288e-10        1.129e-10        2.208e-10      
                    25.0000        1               
  1.070e-06        3.287e-10        1.135e-10        2.211e-10      
                    25.0000        1               
  1.080e-06        3.255e-10        1.138e-10        2.197e-10      
                    25.0000        1               
  1.090e-06        3.230e-10        1.138e-10        2.184e-10      
                    25.0000        1               
  1.100e-06        3.198e-10        1.141e-10        2.169e-10      
                    25.0000        1               
  1.110e-06        3.180e-10        1.141e-10        2.160e-10      
                    25.0000        1               
  1.120e-06        3.177e-10        1.141e-10        2.159e-10      
                    25.0000        1               
  1.130e-06        3.156e-10        1.142e-10        2.149e-10      
                    25.0000        1               
  1.140e-06        3.145e-10        1.144e-10        2.145e-10      
                    25.0000        1               
  1.150e-06        3.108e-10        1.144e-10        2.126e-10      
                    25.0000        1               
  1.160e-06        3.090e-10        1.146e-10        2.118e-10      
                    25.0000        1               
  1.170e-06        3.081e-10        1.147e-10        2.114e-10      
                    25.0000        1               
  1.180e-06        3.074e-10        1.149e-10        2.112e-10      
                    25.0000        1               
  1.190e-06        3.036e-10        1.150e-10        2.093e-10      
                    25.0000        1               
  1.200e-06        3.059e-10        1.146e-10        2.102e-10      
                    25.0000        1               
  1.210e-06        3.025e-10        1.153e-10        2.089e-10      
                    25.0000        1               
  1.220e-06        3.019e-10        1.152e-10        2.085e-10      
                    25.0000        1               
  1.230e-06        3.004e-10        1.150e-10        2.077e-10      
                    25.0000        1               
  1.240e-06        2.966e-10        1.157e-10        2.061e-10      
                    25.0000        1               
  1.250e-06        2.982e-10        1.157e-10        2.070e-10      
                    25.0000        1               
  1.260e-06        2.949e-10        1.132e-10        2.041e-10      
                    25.0000        1               
  1.270e-06        2.921e-10        1.152e-10        2.037e-10      
                    25.0000        1               
  1.280e-06        2.932e-10        1.159e-10        2.046e-10      
                    25.0000        1               
  1.290e-06        2.921e-10        1.162e-10        2.042e-10      
                    25.0000        1               
  1.300e-06        2.879e-10        1.163e-10        2.021e-10      
                    25.0000        1               
  1.310e-06        2.866e-10        1.163e-10        2.015e-10      
                    25.0000        1               
  1.320e-06        2.852e-10        1.162e-10        2.007e-10      
                    25.0000        1               
  1.330e-06        2.858e-10        1.167e-10        2.013e-10      
                    25.0000        1               
  1.340e-06        2.846e-10        1.169e-10        2.007e-10      
                    25.0000        1               
  1.350e-06        2.837e-10        1.170e-10        2.003e-10      
                    25.0000        1               
  1.360e-06        2.810e-10        1.169e-10        1.990e-10      
                    25.0000        1               
  1.370e-06        2.825e-10        1.171e-10        1.998e-10      
                    25.0000        1               
  1.380e-06        2.785e-10        1.169e-10        1.977e-10      
                    25.0000        1               
  1.390e-06        2.797e-10        1.174e-10        1.985e-10      
                    25.0000        1               
  1.400e-06        2.757e-10        1.176e-10        1.966e-10      
                    25.0000        1               
  1.410e-06        2.755e-10        1.176e-10        1.966e-10      
                    25.0000        1               
  1.420e-06        2.732e-10        1.178e-10        1.955e-10      
                    25.0000        1               
  1.430e-06        2.721e-10        1.175e-10        1.948e-10      
                    25.0000        1               
  1.440e-06        2.711e-10        1.176e-10        1.944e-10      
                    25.0000        1               
  1.450e-06        2.725e-10        1.181e-10        1.953e-10      
                    25.0000        1               
  1.460e-06        2.701e-10        1.183e-10        1.942e-10      
                    25.0000        1               
  1.470e-06        2.707e-10        1.183e-10        1.945e-10      
                    25.0000        1               
  1.480e-06        2.682e-10        1.184e-10        1.933e-10      
                    25.0000        1               
  1.490e-06        2.673e-10        1.186e-10        1.929e-10      
                    25.0000        1               
  1.500e-06        2.665e-10        1.187e-10        1.926e-10      
                    25.0000        1               
  1.510e-06        2.638e-10        1.184e-10        1.911e-10      
                    25.0000        1               
  1.520e-06        2.643e-10        1.185e-10        1.914e-10      
                    25.0000        1               
  1.530e-06        2.628e-10        1.187e-10        1.907e-10      
                    25.0000        1               
  1.540e-06        2.633e-10        1.193e-10        1.913e-10      
                    25.0000        1               
  1.550e-06        2.622e-10        1.192e-10        1.907e-10      
                    25.0000        1               
  1.560e-06        2.610e-10        1.194e-10        1.902e-10      
                    25.0000        1               
  1.570e-06        2.590e-10        1.192e-10        1.891e-10      
                    25.0000        1               
  1.580e-06        2.595e-10        1.197e-10        1.896e-10      
                    25.0000        1               
  1.590e-06        2.581e-10        1.198e-10        1.889e-10      
                    25.0000        1               
  1.600e-06        2.573e-10        1.199e-10        1.886e-10      
                    25.0000        1               
  1.610e-06        2.554e-10        1.198e-10        1.876e-10      
                    25.0000        1               
  1.620e-06        2.539e-10        1.201e-10        1.870e-10      
                    25.0000        1               
  1.630e-06        2.550e-10        1.201e-10        1.875e-10      
                    25.0000        1               
  1.640e-06        2.540e-10        1.203e-10        1.871e-10      
                    25.0000        1               
  1.650e-06        2.528e-10        1.203e-10        1.866e-10      
                    25.0000        1               
  1.660e-06        2.520e-10        1.203e-10        1.862e-10      
                    25.0000        1               
  1.670e-06        2.498e-10        1.207e-10        1.853e-10      
                    25.0000        1               
  1.680e-06        2.504e-10        1.209e-10        1.856e-10      
                    25.0000        1               
  1.690e-06        2.508e-10        1.208e-10        1.858e-10      
                    25.0000        1               
  1.700e-06        2.481e-10        1.193e-10        1.837e-10      
                    25.0000        1               
  1.710e-06        2.473e-10        1.209e-10        1.841e-10      
                    25.0000        1               
  1.720e-06        2.463e-10        1.213e-10        1.838e-10      
                    25.0000        1               
  1.730e-06        2.466e-10        1.214e-10        1.840e-10      
                    25.0000        1               
  1.740e-06        2.449e-10        1.211e-10        1.830e-10      
                    25.0000        1               
  1.750e-06        2.442e-10        1.216e-10        1.829e-10      
                    25.0000        1               
  1.760e-06        2.434e-10        1.214e-10        1.824e-10      
                    25.0000        1               
  1.770e-06        2.441e-10        1.219e-10        1.830e-10      
                    25.0000        1               
  1.780e-06        2.421e-10        1.220e-10        1.820e-10      
                    25.0000        1               
  1.790e-06        2.425e-10        1.221e-10        1.823e-10      
                    25.0000        1               
  1.800e-06        2.408e-10        1.222e-10        1.815e-10      
                    25.0000        1               
  1.810e-06        2.412e-10        1.223e-10        1.818e-10      
                    25.0000        1               
  1.820e-06        2.401e-10        1.223e-10        1.812e-10      
                    25.0000        1               
  1.830e-06        2.389e-10        1.218e-10        1.804e-10      
                    25.0000        1               
  1.840e-06        2.387e-10        1.229e-10        1.808e-10      
                    25.0000        1               
  1.850e-06        2.379e-10        1.228e-10        1.804e-10      
                    25.0000        1               
  1.860e-06        2.374e-10        1.229e-10        1.802e-10      
                    25.0000        1               
  1.870e-06        2.371e-10        1.230e-10        1.801e-10      
                    25.0000        1               
  1.880e-06        2.382e-10        1.232e-10        1.807e-10      
                    25.0000        1               
  1.890e-06        2.349e-10        1.233e-10        1.791e-10      
                    25.0000        1               
  1.900e-06        2.351e-10        1.229e-10        1.790e-10      
                    25.0000        1               
  1.910e-06        2.336e-10        1.235e-10        1.785e-10      
                    25.0000        1               
  1.920e-06        2.336e-10        1.233e-10        1.784e-10      
                    25.0000        1               
  1.930e-06        2.340e-10        1.233e-10        1.787e-10      
                    25.0000        1               
  1.940e-06        2.343e-10        1.239e-10        1.791e-10      
                    25.0000        1               
  1.950e-06        2.321e-10        1.236e-10        1.778e-10      
                    25.0000        1               
  1.960e-06        2.317e-10        1.237e-10        1.777e-10      
                    25.0000        1               
  1.970e-06        2.330e-10        1.242e-10        1.786e-10      
                    25.0000        1               
  1.980e-06        2.302e-10        1.240e-10        1.771e-10      
                    25.0000        1               
  1.990e-06        2.320e-10        1.245e-10        1.783e-10      
                    25.0000        1               
  2.000e-06        2.264e-10        1.260e-10        1.762e-10      
                    25.0000        1               
  2.010e-06        2.311e-10        1.247e-10        1.779e-10      
                    25.0000        1               
  2.020e-06        2.306e-10        1.248e-10        1.777e-10      
                    25.0000        1               
  2.030e-06        2.291e-10        1.250e-10        1.770e-10      
                    25.0000        1               
  2.040e-06        2.288e-10        1.248e-10        1.768e-10      
                    25.0000        1               
  2.050e-06        2.256e-10        1.252e-10        1.754e-10      
                    25.0000        1               
  2.060e-06        2.273e-10        1.253e-10        1.763e-10      
                    25.0000        1               
  2.070e-06        2.258e-10        1.254e-10        1.756e-10      
                    25.0000        1               
  2.080e-06        2.277e-10        1.259e-10        1.768e-10      
                    25.0000        1               
  2.090e-06        2.265e-10        1.271e-10        1.768e-10      
                    25.0000        1               
  2.100e-06        2.254e-10        1.258e-10        1.756e-10      
                    25.0000        1               
  2.110e-06        2.250e-10        1.259e-10        1.754e-10      
                    25.0000        1               
  2.120e-06        2.241e-10        1.261e-10        1.751e-10      
                    25.0000        1               
  2.130e-06        2.235e-10        1.261e-10        1.748e-10      
                    25.0000        1               
  2.140e-06        2.241e-10        1.262e-10        1.752e-10      
                    25.0000        1               
  2.150e-06        2.215e-10        1.263e-10        1.739e-10      
                    25.0000        1               
  2.160e-06        2.230e-10        1.265e-10        1.748e-10      
                    25.0000        1               
  2.170e-06        2.197e-10        1.266e-10        1.732e-10      
                    25.0000        1               
  2.180e-06        2.195e-10        1.267e-10        1.731e-10      
                    25.0000        1               
  2.190e-06        2.208e-10        1.268e-10        1.738e-10      
                    25.0000        1               
  2.200e-06        2.211e-10        1.270e-10        1.740e-10      
                    25.0000        1               
  2.210e-06        2.213e-10        1.278e-10        1.746e-10      
                    25.0000        1               
  2.220e-06        2.211e-10        1.280e-10        1.746e-10      
                    25.0000        1               
  2.230e-06        2.180e-10        1.275e-10        1.727e-10      
                    25.0000        1               
  2.240e-06        2.193e-10        1.273e-10        1.733e-10      
                    25.0000        1               
  2.250e-06        2.182e-10        1.276e-10        1.729e-10      
                    25.0000        1               
  2.260e-06        2.166e-10        1.276e-10        1.721e-10      
                    25.0000        1               
  2.270e-06        2.156e-10        1.278e-10        1.717e-10      
                    25.0000        1               
  2.280e-06        2.171e-10        1.279e-10        1.725e-10      
                    25.0000        1               
  2.290e-06        2.175e-10        1.280e-10        1.728e-10      
                    25.0000        1               
  2.300e-06        2.157e-10        1.281e-10        1.719e-10      
                    25.0000        1               
  2.310e-06        2.141e-10        1.283e-10        1.712e-10      
                    25.0000        1               
  2.320e-06        2.151e-10        1.284e-10        1.718e-10      
                    25.0000        1               
  2.330e-06        2.132e-10        1.285e-10        1.709e-10      
                    25.0000        1               
  2.340e-06        2.138e-10        1.286e-10        1.712e-10      
                    25.0000        1               
  2.350e-06        2.156e-10        1.287e-10        1.722e-10      
                    25.0000        1               
  2.360e-06        2.126e-10        1.288e-10        1.707e-10      
                    25.0000        1               
  2.370e-06        2.117e-10        1.290e-10        1.703e-10      
                    25.0000        1               
  2.380e-06        2.118e-10        1.291e-10        1.704e-10      
                    25.0000        1               
  2.390e-06        2.132e-10        1.294e-10        1.713e-10      
                    25.0000        1               
  2.400e-06        2.136e-10        1.294e-10        1.715e-10      
                    25.0000        1               
  2.410e-06        2.133e-10        1.294e-10        1.714e-10      
                    25.0000        1               
  2.420e-06        2.130e-10        1.296e-10        1.713e-10      
                    25.0000        1               
  2.430e-06        2.117e-10        1.297e-10        1.707e-10      
                    25.0000        1               
  2.440e-06        2.108e-10        1.300e-10        1.704e-10      
                    25.0000        1               
  2.450e-06        2.098e-10        1.294e-10        1.696e-10      
                    25.0000        1               
  2.460e-06        2.114e-10        1.300e-10        1.707e-10      
                    25.0000        1               
  2.470e-06        2.097e-10        1.302e-10        1.699e-10      
                    25.0000        1               
  2.480e-06        2.105e-10        1.305e-10        1.705e-10      
                    25.0000        1               
  2.490e-06        2.101e-10        1.307e-10        1.704e-10      
                    25.0000        1               
  2.500e-06        2.098e-10        1.308e-10        1.703e-10      
                    25.0000        1               
  2.510e-06        2.076e-10        1.307e-10        1.691e-10      
                    25.0000        1               
  2.520e-06        2.073e-10        1.308e-10        1.690e-10      
                    25.0000        1               
  2.530e-06        2.089e-10        1.312e-10        1.700e-10      
                    25.0000        1               
  2.540e-06        2.086e-10        1.313e-10        1.699e-10      
                    25.0000        1               
  2.550e-06        2.081e-10        1.314e-10        1.698e-10      
                    25.0000        1               
  2.560e-06        2.071e-10        1.312e-10        1.692e-10      
                    25.0000        1               
  2.570e-06        2.075e-10        1.315e-10        1.695e-10      
                    25.0000        1               
  2.580e-06        2.070e-10        1.316e-10        1.693e-10      
                    25.0000        1               
  2.590e-06        2.069e-10        1.317e-10        1.693e-10      
                    25.0000        1               
  2.600e-06        2.067e-10        1.318e-10        1.693e-10      
                    25.0000        1               
  2.610e-06        2.066e-10        1.319e-10        1.693e-10      
                    25.0000        1               
  2.620e-06        2.064e-10        1.320e-10        1.692e-10      
                    25.0000        1               
  2.630e-06        2.062e-10        1.322e-10        1.692e-10      
                    25.0000        1               
  2.640e-06        2.059e-10        1.323e-10        1.691e-10      
                    25.0000        1               
  2.650e-06        2.056e-10        1.324e-10        1.690e-10      
                    25.0000        1               
  2.660e-06        2.053e-10        1.325e-10        1.689e-10      
                    25.0000        1               
  2.670e-06        2.050e-10        1.327e-10        1.688e-10      
                    25.0000        1               
  2.680e-06        2.048e-10        1.328e-10        1.688e-10      
                    25.0000        1               
  2.690e-06        2.045e-10        1.329e-10        1.687e-10      
                    25.0000        1               
  2.700e-06        2.021e-10        1.330e-10        1.675e-10      
                    25.0000        1               
  2.710e-06        2.028e-10        1.331e-10        1.679e-10      
                    25.0000        1               
  2.720e-06        2.029e-10        1.331e-10        1.680e-10      
                    25.0000        1               
  2.730e-06        2.014e-10        1.325e-10        1.669e-10      
                    25.0000        1               
  2.740e-06        2.032e-10        1.335e-10        1.683e-10      
                    25.0000        1               
  2.750e-06        2.025e-10        1.336e-10        1.680e-10      
                    25.0000        1               
  2.760e-06        2.007e-10        1.337e-10        1.672e-10      
                    25.0000        1               
  2.770e-06        2.006e-10        1.338e-10        1.672e-10      
                    25.0000        1               
  2.780e-06        2.013e-10        1.338e-10        1.676e-10      
                    25.0000        1               
  2.790e-06        2.009e-10        1.341e-10        1.675e-10      
                    25.0000        1               
  2.800e-06        2.004e-10        1.340e-10        1.672e-10      
                    25.0000        1               
  2.810e-06        2.000e-10        1.342e-10        1.671e-10      
                    25.0000        1               
  2.820e-06        2.012e-10        1.344e-10        1.678e-10      
                    25.0000        1               
  2.830e-06        2.010e-10        1.346e-10        1.678e-10      
                    25.0000        1               
  2.840e-06        2.008e-10        1.347e-10        1.677e-10      
                    25.0000        1               
  2.850e-06        2.005e-10        1.348e-10        1.677e-10      
                    25.0000        1               
  2.860e-06        1.998e-10        1.348e-10        1.673e-10      
                    25.0000        1               
  2.870e-06        1.996e-10        1.349e-10        1.672e-10      
                    25.0000        1               
  2.880e-06        1.986e-10        1.350e-10        1.668e-10      
                    25.0000        1               
  2.890e-06        1.985e-10        1.351e-10        1.668e-10      
                    25.0000        1               
  2.900e-06        1.982e-10        1.353e-10        1.668e-10      
                    25.0000        1               
  2.910e-06        1.981e-10        1.354e-10        1.667e-10      
                    25.0000        1               
  2.920e-06        1.978e-10        1.355e-10        1.667e-10      
                    25.0000        1               
  2.930e-06        1.976e-10        1.356e-10        1.666e-10      
                    25.0000        1               
  2.940e-06        1.973e-10        1.357e-10        1.665e-10      
                    25.0000        1               
  2.950e-06        1.983e-10        1.360e-10        1.672e-10      
                    25.0000        1               
  2.960e-06        1.977e-10        1.360e-10        1.669e-10      
                    25.0000        1               
  2.970e-06        1.966e-10        1.361e-10        1.664e-10      
                    25.0000        1               
  2.980e-06        1.974e-10        1.364e-10        1.669e-10      
                    25.0000        1               
  2.990e-06        1.973e-10        1.365e-10        1.669e-10      
                    25.0000        1               
  3.000e-06        1.973e-10        1.366e-10        1.670e-10      
                    25.0000        1               
  3.010e-06        1.961e-10        1.367e-10        1.664e-10      
                    25.0000        1               
  3.020e-06        1.947e-10        1.366e-10        1.657e-10      
                    25.0000        1               
  3.030e-06        1.959e-10        1.368e-10        1.664e-10      
                    25.0000        1               
  3.040e-06        1.952e-10        1.370e-10        1.661e-10      
                    25.0000        1               
  3.050e-06        1.941e-10        1.370e-10        1.655e-10      
                    25.0000        1               
  3.060e-06        1.939e-10        1.371e-10        1.655e-10      
                    25.0000        1               
  3.070e-06        1.959e-10        1.374e-10        1.667e-10      
                    25.0000        1               
  3.080e-06        1.959e-10        1.377e-10        1.668e-10      
                    25.0000        1               
  3.090e-06        1.929e-10        1.389e-10        1.659e-10      
                    25.0000        1               
  3.100e-06        1.950e-10        1.377e-10        1.664e-10      
                    25.0000        1               
  3.110e-06        1.932e-10        1.380e-10        1.656e-10      
                    25.0000        1               
  3.120e-06        1.934e-10        1.379e-10        1.657e-10      
                    25.0000        1               
  3.130e-06        1.927e-10        1.382e-10        1.654e-10      
                    25.0000        1               
  3.140e-06        1.943e-10        1.386e-10        1.664e-10      
                    25.0000        1               
  3.150e-06        1.932e-10        1.387e-10        1.659e-10      
                    25.0000        1               
  3.160e-06        1.941e-10        1.388e-10        1.665e-10      
                    25.0000        1               
  3.170e-06        1.938e-10        1.389e-10        1.664e-10      
                    25.0000        1               
  3.180e-06        1.937e-10        1.389e-10        1.663e-10      
                    25.0000        1               
  3.190e-06        1.926e-10        1.388e-10        1.657e-10      
                    25.0000        1               
  3.200e-06        1.931e-10        1.390e-10        1.660e-10      
                    25.0000        1               
  3.210e-06        1.922e-10        1.391e-10        1.657e-10      
                    25.0000        1               
  3.220e-06        1.920e-10        1.392e-10        1.656e-10      
                    25.0000        1               
  3.230e-06        1.922e-10        1.392e-10        1.657e-10      
                    25.0000        1               
  3.240e-06        1.915e-10        1.396e-10        1.655e-10      
                    25.0000        1               
  3.250e-06        1.915e-10        1.396e-10        1.655e-10      
                    25.0000        1               
  3.260e-06        1.911e-10        1.397e-10        1.654e-10      
                    25.0000        1               
  3.270e-06        1.918e-10        1.398e-10        1.658e-10      
                    25.0000        1               
  3.280e-06        1.907e-10        1.401e-10        1.654e-10      
                    25.0000        1               
  3.290e-06        1.896e-10        1.416e-10        1.656e-10      
                    25.0000        1               
  3.300e-06        1.899e-10        1.402e-10        1.651e-10      
                    25.0000        1               
  3.310e-06        1.911e-10        1.403e-10        1.657e-10      
                    25.0000        1               
  3.320e-06        1.899e-10        1.419e-10        1.659e-10      
                    25.0000        1               
  3.330e-06        1.898e-10        1.417e-10        1.658e-10      
                    25.0000        1               
  3.340e-06        1.901e-10        1.403e-10        1.652e-10      
                    25.0000        1               
  3.350e-06        1.898e-10        1.401e-10        1.650e-10      
                    25.0000        1               
  3.360e-06        1.884e-10        1.410e-10        1.647e-10      
                    25.0000        1               
  3.370e-06        1.882e-10        1.411e-10        1.647e-10      
                    25.0000        1               
  3.380e-06        1.881e-10        1.413e-10        1.647e-10      
                    25.0000        1               
  3.390e-06        1.879e-10        1.413e-10        1.646e-10      
                    25.0000        1               
  3.400e-06        1.895e-10        1.416e-10        1.656e-10      
                    25.0000        1               
  3.410e-06        1.866e-10        1.416e-10        1.641e-10      
                    25.0000        1               
  3.420e-06        1.881e-10        1.418e-10        1.649e-10      
                    25.0000        1               
  3.430e-06        1.873e-10        1.419e-10        1.646e-10      
                    25.0000        1               
  3.440e-06        1.871e-10        1.420e-10        1.645e-10      
                    25.0000        1               
  3.450e-06        1.886e-10        1.421e-10        1.654e-10      
                    25.0000        1               
  3.460e-06        1.863e-10        1.423e-10        1.643e-10      
                    25.0000        1               
  3.470e-06        1.862e-10        1.424e-10        1.643e-10      
                    25.0000        1               
  3.480e-06        1.866e-10        1.424e-10        1.645e-10      
                    25.0000        1               
  3.490e-06        1.864e-10        1.427e-10        1.646e-10      
                    25.0000        1               
  3.500e-06        1.881e-10        1.437e-10        1.659e-10      
                    25.0000        1               
  3.510e-06        1.873e-10        1.429e-10        1.651e-10      
                    25.0000        1               
  3.520e-06        1.872e-10        1.428e-10        1.650e-10      
                    25.0000        1               
  3.530e-06        1.848e-10        1.431e-10        1.639e-10      
                    25.0000        1               
  3.540e-06        1.856e-10        1.432e-10        1.644e-10      
                    25.0000        1               
  3.550e-06        1.867e-10        1.433e-10        1.650e-10      
                    25.0000        1               
  3.560e-06        1.865e-10        1.434e-10        1.649e-10      
                    25.0000        1               
  3.570e-06        1.852e-10        1.437e-10        1.644e-10      
                    25.0000        1               
  3.580e-06        1.863e-10        1.436e-10        1.650e-10      
                    25.0000        1               
  3.590e-06        1.849e-10        1.439e-10        1.644e-10      
                    25.0000        1               
  3.600e-06        1.848e-10        1.439e-10        1.643e-10      
                    25.0000        1               
  3.610e-06        1.861e-10        1.440e-10        1.651e-10      
                    25.0000        1               
  3.620e-06        1.859e-10        1.442e-10        1.651e-10      
                    25.0000        1               
  3.630e-06        1.858e-10        1.443e-10        1.651e-10      
                    25.0000        1               
  3.640e-06        1.857e-10        1.444e-10        1.651e-10      
                    25.0000        1               
  3.650e-06        1.856e-10        1.445e-10        1.651e-10      
                    25.0000        1               
  3.660e-06        1.855e-10        1.447e-10        1.651e-10      
                    25.0000        1               
  3.670e-06        1.854e-10        1.448e-10        1.651e-10      
                    25.0000        1               
  3.680e-06        1.852e-10        1.449e-10        1.651e-10      
                    25.0000        1               
  3.690e-06        1.851e-10        1.450e-10        1.651e-10      
                    25.0000        1               
  3.700e-06        1.850e-10        1.452e-10        1.651e-10      
                    25.0000        1               
  3.710e-06        1.849e-10        1.453e-10        1.651e-10      
                    25.0000        1               
  3.720e-06        1.848e-10        1.454e-10        1.651e-10      
                    25.0000        1               
  3.730e-06        1.847e-10        1.455e-10        1.651e-10      
                    25.0000        1               
  3.740e-06        1.845e-10        1.457e-10        1.651e-10      
                    25.0000        1               
  3.750e-06        1.844e-10        1.458e-10        1.651e-10      
                    25.0000        1               
  3.760e-06        1.843e-10        1.459e-10        1.651e-10      
                    25.0000        1               
  3.770e-06        1.842e-10        1.460e-10        1.651e-10      
                    25.0000        1               
  3.780e-06        1.841e-10        1.462e-10        1.651e-10      
                    25.0000        1               
  3.790e-06        1.840e-10        1.463e-10        1.651e-10      
                    25.0000        1               
  3.800e-06        1.839e-10        1.464e-10        1.651e-10      
                    25.0000        1               
  3.810e-06        1.838e-10        1.465e-10        1.651e-10      
                    25.0000        1               
  3.820e-06        1.837e-10        1.466e-10        1.651e-10      
                    25.0000        1               
  3.830e-06        1.835e-10        1.468e-10        1.652e-10      
                    25.0000        1               
  3.840e-06        1.834e-10        1.469e-10        1.652e-10      
                    25.0000        1               
  3.850e-06        1.833e-10        1.470e-10        1.652e-10      
                    25.0000        1               
  3.860e-06        1.832e-10        1.471e-10        1.652e-10      
                    25.0000        1               
  3.870e-06        1.831e-10        1.473e-10        1.652e-10      
                    25.0000        1               
  3.880e-06        1.830e-10        1.474e-10        1.652e-10      
                    25.0000        1               
  3.890e-06        1.829e-10        1.475e-10        1.652e-10      
                    25.0000        1               
  3.900e-06        1.828e-10        1.476e-10        1.652e-10      
                    25.0000        1               
  3.910e-06        1.827e-10        1.477e-10        1.652e-10      
                    25.0000        1               
  3.920e-06        1.826e-10        1.478e-10        1.652e-10      
                    25.0000        1               
  3.930e-06        1.825e-10        1.479e-10        1.652e-10      
                    25.0000        1               
  3.940e-06        1.824e-10        1.480e-10        1.652e-10      
                    25.0000        1               
  3.950e-06        1.823e-10        1.481e-10        1.652e-10      
                    25.0000        1               
  3.960e-06        1.822e-10        1.483e-10        1.652e-10      
                    25.0000        1               
  3.970e-06        1.821e-10        1.484e-10        1.652e-10      
                    25.0000        1               
  3.980e-06        1.820e-10        1.485e-10        1.652e-10      
                    25.0000        1               
  3.990e-06        1.819e-10        1.487e-10        1.653e-10      
                    25.0000        1               
  4.000e-06        1.818e-10        1.489e-10        1.653e-10      
                    25.0000        1               
