$DATA1 SOURCE='HSPICE' VERSION='O-2018.09 linux64' PARAM_COUNT=1
.TITLE '**testbench**'
 size             rising_delay     falling_delay    delay_avg       
                  temper           alter#          
  2.500e-07        2.757e-10        2.204e-10        2.480e-10      
                    25.0000        1               
  2.600e-07        2.679e-10        2.168e-10        2.424e-10      
                    25.0000        1               
  2.700e-07        2.641e-10        2.143e-10        2.392e-10      
                    25.0000        1               
  2.800e-07        2.577e-10        2.114e-10        2.346e-10      
                    25.0000        1               
  2.900e-07        2.521e-10        2.095e-10        2.308e-10      
                    25.0000        1               
  3.000e-07        2.488e-10        2.074e-10        2.281e-10      
                    25.0000        1               
  3.100e-07        2.429e-10        2.050e-10        2.240e-10      
                    25.0000        1               
  3.200e-07        2.379e-10        2.033e-10        2.206e-10      
                    25.0000        1               
  3.300e-07        2.348e-10        2.015e-10        2.181e-10      
                    25.0000        1               
  3.400e-07        2.342e-10        2.005e-10        2.173e-10      
                    25.0000        1               
  3.500e-07        2.303e-10        1.990e-10        2.147e-10      
                    25.0000        1               
  3.600e-07        2.234e-10        1.977e-10        2.106e-10      
                    25.0000        1               
  3.700e-07        2.229e-10        1.964e-10        2.096e-10      
                    25.0000        1               
  3.800e-07        2.178e-10        1.953e-10        2.065e-10      
                    25.0000        1               
  3.900e-07        2.185e-10        1.940e-10        2.062e-10      
                    25.0000        1               
  4.000e-07        2.159e-10        1.930e-10        2.044e-10      
                    25.0000        1               
  4.100e-07        2.135e-10        1.920e-10        2.027e-10      
                    25.0000        1               
  4.200e-07        2.112e-10        1.912e-10        2.012e-10      
                    25.0000        1               
  4.300e-07        2.071e-10        1.905e-10        1.988e-10      
                    25.0000        1               
  4.400e-07        2.042e-10        1.897e-10        1.970e-10      
                    25.0000        1               
  4.500e-07        2.023e-10        1.889e-10        1.956e-10      
                    25.0000        1               
  4.600e-07        2.021e-10        1.881e-10        1.951e-10      
                    25.0000        1               
  4.700e-07        1.982e-10        1.876e-10        1.929e-10      
                    25.0000        1               
  4.800e-07        1.968e-10        1.868e-10        1.918e-10      
                    25.0000        1               
  4.900e-07        1.968e-10        1.865e-10        1.916e-10      
                    25.0000        1               
  5.000e-07        1.933e-10        1.857e-10        1.895e-10      
                    25.0000        1               
  5.100e-07        1.923e-10        1.853e-10        1.888e-10      
                    25.0000        1               
  5.200e-07        1.919e-10        1.848e-10        1.884e-10      
                    25.0000        1               
  5.300e-07        1.901e-10        1.842e-10        1.872e-10      
                    25.0000        1               
  5.400e-07        1.894e-10        1.840e-10        1.867e-10      
                    25.0000        1               
  5.500e-07        1.870e-10        1.834e-10        1.852e-10      
                    25.0000        1               
  5.600e-07        1.859e-10        1.830e-10        1.845e-10      
                    25.0000        1               
  5.700e-07        1.861e-10        1.829e-10        1.845e-10      
                    25.0000        1               
  5.800e-07        1.839e-10        1.826e-10        1.832e-10      
                    25.0000        1               
  5.900e-07        1.833e-10        1.823e-10        1.828e-10      
                    25.0000        1               
  6.000e-07        1.824e-10        1.788e-10        1.806e-10      
                    25.0000        1               
  6.100e-07        1.811e-10        1.817e-10        1.814e-10      
                    25.0000        1               
  6.200e-07        1.806e-10        1.816e-10        1.811e-10      
                    25.0000        1               
  6.300e-07        1.793e-10        1.814e-10        1.804e-10      
                    25.0000        1               
  6.400e-07        1.781e-10        1.811e-10        1.796e-10      
                    25.0000        1               
  6.500e-07        1.781e-10        1.808e-10        1.795e-10      
                    25.0000        1               
  6.600e-07        1.776e-10        1.807e-10        1.791e-10      
                    25.0000        1               
  6.700e-07        1.765e-10        1.805e-10        1.785e-10      
                    25.0000        1               
  6.800e-07        1.767e-10        1.803e-10        1.785e-10      
                    25.0000        1               
  6.900e-07        1.758e-10        1.797e-10        1.778e-10      
                    25.0000        1               
  7.000e-07        1.747e-10        1.799e-10        1.773e-10      
                    25.0000        1               
  7.100e-07        1.731e-10        1.799e-10        1.765e-10      
                    25.0000        1               
  7.200e-07        1.728e-10        1.798e-10        1.763e-10      
                    25.0000        1               
  7.300e-07        1.726e-10        1.797e-10        1.762e-10      
                    25.0000        1               
  7.400e-07        1.720e-10        1.796e-10        1.758e-10      
                    25.0000        1               
  7.500e-07        1.720e-10        1.790e-10        1.755e-10      
                    25.0000        1               
  7.600e-07        1.706e-10        1.794e-10        1.750e-10      
                    25.0000        1               
  7.700e-07        1.701e-10        1.794e-10        1.747e-10      
                    25.0000        1               
  7.800e-07        1.694e-10        1.794e-10        1.744e-10      
                    25.0000        1               
  7.900e-07        1.702e-10        1.793e-10        1.747e-10      
                    25.0000        1               
  8.000e-07        1.726e-10        1.793e-10        1.759e-10      
                    25.0000        1               
  8.100e-07        1.693e-10        1.793e-10        1.743e-10      
                    25.0000        1               
  8.200e-07        1.692e-10        1.764e-10        1.728e-10      
                    25.0000        1               
  8.300e-07        1.715e-10        1.808e-10        1.761e-10      
                    25.0000        1               
  8.400e-07        1.711e-10        1.807e-10        1.759e-10      
                    25.0000        1               
  8.500e-07        1.674e-10        1.792e-10        1.733e-10      
                    25.0000        1               
  8.600e-07        1.671e-10        1.793e-10        1.732e-10      
                    25.0000        1               
  8.700e-07        1.702e-10        1.792e-10        1.747e-10      
                    25.0000        1               
  8.800e-07        1.691e-10        1.793e-10        1.742e-10      
                    25.0000        1               
  8.900e-07        1.668e-10        1.794e-10        1.731e-10      
                    25.0000        1               
  9.000e-07        1.661e-10        1.794e-10        1.728e-10      
                    25.0000        1               
  9.100e-07        1.681e-10        1.795e-10        1.738e-10      
                    25.0000        1               
  9.200e-07        1.665e-10        1.794e-10        1.729e-10      
                    25.0000        1               
  9.300e-07        1.663e-10        1.796e-10        1.730e-10      
                    25.0000        1               
  9.400e-07        1.657e-10        1.797e-10        1.727e-10      
                    25.0000        1               
  9.500e-07        1.656e-10        1.797e-10        1.727e-10      
                    25.0000        1               
  9.600e-07        1.655e-10        1.798e-10        1.726e-10      
                    25.0000        1               
  9.700e-07        1.655e-10        1.798e-10        1.727e-10      
                    25.0000        1               
  9.800e-07        1.661e-10        1.799e-10        1.730e-10      
                    25.0000        1               
  9.900e-07        1.665e-10        1.800e-10        1.732e-10      
                    25.0000        1               
  1.000e-06        1.621e-10        1.800e-10        1.710e-10      
                    25.0000        1               
  1.010e-06        1.648e-10        1.802e-10        1.725e-10      
                    25.0000        1               
  1.020e-06        1.646e-10        1.803e-10        1.725e-10      
                    25.0000        1               
  1.030e-06        1.635e-10        1.804e-10        1.720e-10      
                    25.0000        1               
  1.040e-06        1.670e-10        1.805e-10        1.737e-10      
                    25.0000        1               
  1.050e-06        1.646e-10        1.806e-10        1.726e-10      
                    25.0000        1               
  1.060e-06        1.645e-10        1.807e-10        1.726e-10      
                    25.0000        1               
  1.070e-06        1.653e-10        1.812e-10        1.733e-10      
                    25.0000        1               
  1.080e-06        1.624e-10        1.809e-10        1.717e-10      
                    25.0000        1               
  1.090e-06        1.645e-10        1.811e-10        1.728e-10      
                    25.0000        1               
  1.100e-06        1.637e-10        1.812e-10        1.724e-10      
                    25.0000        1               
  1.110e-06        1.637e-10        1.811e-10        1.724e-10      
                    25.0000        1               
  1.120e-06        1.639e-10        1.814e-10        1.726e-10      
                    25.0000        1               
  1.130e-06        1.635e-10        1.816e-10        1.726e-10      
                    25.0000        1               
  1.140e-06        1.655e-10        1.817e-10        1.736e-10      
                    25.0000        1               
  1.150e-06        1.638e-10        1.819e-10        1.729e-10      
                    25.0000        1               
  1.160e-06        1.636e-10        1.821e-10        1.728e-10      
                    25.0000        1               
  1.170e-06        1.647e-10        1.822e-10        1.734e-10      
                    25.0000        1               
  1.180e-06        1.641e-10        1.824e-10        1.732e-10      
                    25.0000        1               
  1.190e-06        1.631e-10        1.825e-10        1.728e-10      
                    25.0000        1               
  1.200e-06        1.624e-10        1.826e-10        1.725e-10      
                    25.0000        1               
  1.210e-06        1.645e-10        1.828e-10        1.736e-10      
                    25.0000        1               
  1.220e-06        1.627e-10        1.829e-10        1.728e-10      
                    25.0000        1               
  1.230e-06        1.625e-10        1.830e-10        1.728e-10      
                    25.0000        1               
  1.240e-06        1.644e-10        1.832e-10        1.738e-10      
                    25.0000        1               
  1.250e-06        1.634e-10        1.837e-10        1.735e-10      
                    25.0000        1               
  1.260e-06        1.614e-10        1.836e-10        1.725e-10      
                    25.0000        1               
  1.270e-06        1.627e-10        1.853e-10        1.740e-10      
                    25.0000        1               
  1.280e-06        1.617e-10        1.838e-10        1.728e-10      
                    25.0000        1               
  1.290e-06        1.641e-10        1.841e-10        1.741e-10      
                    25.0000        1               
  1.300e-06        1.641e-10        1.841e-10        1.741e-10      
                    25.0000        1               
  1.310e-06        1.639e-10        1.845e-10        1.742e-10      
                    25.0000        1               
  1.320e-06        1.628e-10        1.846e-10        1.737e-10      
                    25.0000        1               
  1.330e-06        1.627e-10        1.843e-10        1.735e-10      
                    25.0000        1               
  1.340e-06        1.613e-10        1.853e-10        1.733e-10      
                    25.0000        1               
  1.350e-06        1.643e-10        1.852e-10        1.748e-10      
                    25.0000        1               
  1.360e-06        1.614e-10        1.860e-10        1.737e-10      
                    25.0000        1               
  1.370e-06        1.632e-10        1.856e-10        1.744e-10      
                    25.0000        1               
  1.380e-06        1.641e-10        1.877e-10        1.759e-10      
                    25.0000        1               
  1.390e-06        1.629e-10        1.857e-10        1.743e-10      
                    25.0000        1               
  1.400e-06        1.631e-10        1.858e-10        1.744e-10      
                    25.0000        1               
  1.410e-06        1.631e-10        1.860e-10        1.746e-10      
                    25.0000        1               
  1.420e-06        1.640e-10        1.860e-10        1.750e-10      
                    25.0000        1               
  1.430e-06        1.635e-10        1.867e-10        1.751e-10      
                    25.0000        1               
  1.440e-06        1.651e-10        1.890e-10        1.771e-10      
                    25.0000        1               
  1.450e-06        1.642e-10        1.872e-10        1.757e-10      
                    25.0000        1               
  1.460e-06        1.643e-10        1.876e-10        1.759e-10      
                    25.0000        1               
  1.470e-06        1.654e-10        1.869e-10        1.761e-10      
                    25.0000        1               
  1.480e-06        1.653e-10        1.875e-10        1.764e-10      
                    25.0000        1               
  1.490e-06        1.649e-10        1.877e-10        1.763e-10      
                    25.0000        1               
  1.500e-06        1.650e-10        1.879e-10        1.765e-10      
                    25.0000        1               
  1.510e-06        1.651e-10        1.881e-10        1.766e-10      
                    25.0000        1               
  1.520e-06        1.651e-10        1.883e-10        1.767e-10      
                    25.0000        1               
  1.530e-06        1.653e-10        1.885e-10        1.769e-10      
                    25.0000        1               
  1.540e-06        1.625e-10        1.887e-10        1.756e-10      
                    25.0000        1               
  1.550e-06        1.653e-10        1.891e-10        1.772e-10      
                    25.0000        1               
  1.560e-06        1.660e-10        1.890e-10        1.775e-10      
                    25.0000        1               
  1.570e-06        1.627e-10        1.893e-10        1.760e-10      
                    25.0000        1               
  1.580e-06        1.657e-10        1.895e-10        1.776e-10      
                    25.0000        1               
  1.590e-06        1.654e-10        1.896e-10        1.775e-10      
                    25.0000        1               
  1.600e-06        1.660e-10        1.921e-10        1.791e-10      
                    25.0000        1               
  1.610e-06        1.631e-10        1.901e-10        1.766e-10      
                    25.0000        1               
  1.620e-06        1.660e-10        1.903e-10        1.781e-10      
                    25.0000        1               
  1.630e-06        1.632e-10        1.905e-10        1.769e-10      
                    25.0000        1               
  1.640e-06        1.664e-10        1.907e-10        1.785e-10      
                    25.0000        1               
  1.650e-06        1.659e-10        1.913e-10        1.786e-10      
                    25.0000        1               
  1.660e-06        1.665e-10        1.915e-10        1.790e-10      
                    25.0000        1               
  1.670e-06        1.666e-10        1.917e-10        1.792e-10      
                    25.0000        1               
  1.680e-06        1.666e-10        1.919e-10        1.793e-10      
                    25.0000        1               
  1.690e-06        1.666e-10        1.921e-10        1.793e-10      
                    25.0000        1               
  1.700e-06        1.667e-10        1.923e-10        1.795e-10      
                    25.0000        1               
  1.710e-06        1.669e-10        1.922e-10        1.795e-10      
                    25.0000        1               
  1.720e-06        1.668e-10        1.927e-10        1.798e-10      
                    25.0000        1               
  1.730e-06        1.666e-10        1.926e-10        1.796e-10      
                    25.0000        1               
  1.740e-06        1.657e-10        1.929e-10        1.793e-10      
                    25.0000        1               
  1.750e-06        1.671e-10        1.931e-10        1.801e-10      
                    25.0000        1               
  1.760e-06        1.663e-10        1.935e-10        1.799e-10      
                    25.0000        1               
  1.770e-06        1.613e-10        1.936e-10        1.775e-10      
                    25.0000        1               
  1.780e-06        1.660e-10        1.941e-10        1.801e-10      
                    25.0000        1               
  1.790e-06        1.661e-10        1.949e-10        1.805e-10      
                    25.0000        1               
  1.800e-06        1.695e-10        1.946e-10        1.821e-10      
                    25.0000        1               
  1.810e-06        1.678e-10        1.965e-10        1.822e-10      
                    25.0000        1               
  1.820e-06        1.679e-10        1.961e-10        1.820e-10      
                    25.0000        1               
  1.830e-06        1.675e-10        1.950e-10        1.813e-10      
                    25.0000        1               
  1.840e-06        1.655e-10        1.965e-10        1.810e-10      
                    25.0000        1               
  1.850e-06        1.655e-10        1.958e-10        1.806e-10      
                    25.0000        1               
  1.860e-06        1.659e-10        1.961e-10        1.810e-10      
                    25.0000        1               
  1.870e-06        1.680e-10        1.970e-10        1.825e-10      
                    25.0000        1               
  1.880e-06        1.687e-10        1.964e-10        1.826e-10      
                    25.0000        1               
  1.890e-06        1.688e-10        1.973e-10        1.831e-10      
                    25.0000        1               
  1.900e-06        1.707e-10        1.970e-10        1.838e-10      
                    25.0000        1               
  1.910e-06        1.664e-10        1.973e-10        1.819e-10      
                    25.0000        1               
  1.920e-06        1.666e-10        1.975e-10        1.820e-10      
                    25.0000        1               
  1.930e-06        1.693e-10        1.977e-10        1.835e-10      
                    25.0000        1               
  1.940e-06        1.696e-10        1.980e-10        1.838e-10      
                    25.0000        1               
  1.950e-06        1.665e-10        1.991e-10        1.828e-10      
                    25.0000        1               
  1.960e-06        1.699e-10        1.991e-10        1.845e-10      
                    25.0000        1               
  1.970e-06        1.697e-10        1.987e-10        1.842e-10      
                    25.0000        1               
  1.980e-06        1.694e-10        2.006e-10        1.850e-10      
                    25.0000        1               
  1.990e-06        1.700e-10        1.998e-10        1.849e-10      
                    25.0000        1               
  2.000e-06        1.703e-10        2.004e-10        1.853e-10      
                    25.0000        1               
  2.010e-06        1.698e-10        2.007e-10        1.853e-10      
                    25.0000        1               
  2.020e-06        1.707e-10        2.005e-10        1.856e-10      
                    25.0000        1               
  2.030e-06        1.681e-10        2.002e-10        1.842e-10      
                    25.0000        1               
  2.040e-06        1.706e-10        2.006e-10        1.856e-10      
                    25.0000        1               
  2.050e-06        1.700e-10        2.015e-10        1.858e-10      
                    25.0000        1               
  2.060e-06        1.701e-10        2.023e-10        1.862e-10      
                    25.0000        1               
  2.070e-06        1.703e-10        2.023e-10        1.863e-10      
                    25.0000        1               
  2.080e-06        1.714e-10        2.025e-10        1.870e-10      
                    25.0000        1               
  2.090e-06        1.708e-10        2.030e-10        1.869e-10      
                    25.0000        1               
  2.100e-06        1.707e-10        2.024e-10        1.866e-10      
                    25.0000        1               
  2.110e-06        1.715e-10        2.026e-10        1.870e-10      
                    25.0000        1               
  2.120e-06        1.706e-10        2.034e-10        1.870e-10      
                    25.0000        1               
  2.130e-06        1.710e-10        2.041e-10        1.876e-10      
                    25.0000        1               
  2.140e-06        1.712e-10        2.031e-10        1.872e-10      
                    25.0000        1               
  2.150e-06        1.713e-10        2.041e-10        1.877e-10      
                    25.0000        1               
  2.160e-06        1.724e-10        2.048e-10        1.886e-10      
                    25.0000        1               
  2.170e-06        1.718e-10        2.039e-10        1.879e-10      
                    25.0000        1               
  2.180e-06        1.719e-10        2.043e-10        1.881e-10      
                    25.0000        1               
  2.190e-06        1.712e-10        2.053e-10        1.882e-10      
                    25.0000        1               
  2.200e-06        1.717e-10        2.053e-10        1.885e-10      
                    25.0000        1               
  2.210e-06        1.732e-10        2.053e-10        1.893e-10      
                    25.0000        1               
  2.220e-06        1.730e-10        2.064e-10        1.897e-10      
                    25.0000        1               
  2.230e-06        1.724e-10        2.068e-10        1.896e-10      
                    25.0000        1               
  2.240e-06        1.720e-10        2.062e-10        1.891e-10      
                    25.0000        1               
  2.250e-06        1.739e-10        2.065e-10        1.902e-10      
                    25.0000        1               
  2.260e-06        1.724e-10        2.067e-10        1.896e-10      
                    25.0000        1               
  2.270e-06        1.725e-10        2.066e-10        1.895e-10      
                    25.0000        1               
  2.280e-06        1.729e-10        2.083e-10        1.906e-10      
                    25.0000        1               
  2.290e-06        1.727e-10        2.086e-10        1.907e-10      
                    25.0000        1               
  2.300e-06        1.741e-10        2.087e-10        1.914e-10      
                    25.0000        1               
  2.310e-06        1.744e-10        2.091e-10        1.918e-10      
                    25.0000        1               
  2.320e-06        1.750e-10        2.086e-10        1.918e-10      
                    25.0000        1               
  2.330e-06        1.729e-10        2.096e-10        1.913e-10      
                    25.0000        1               
  2.340e-06        1.738e-10        2.100e-10        1.919e-10      
                    25.0000        1               
  2.350e-06        1.739e-10        2.102e-10        1.921e-10      
                    25.0000        1               
  2.360e-06        1.743e-10        2.089e-10        1.916e-10      
                    25.0000        1               
  2.370e-06        1.735e-10        2.095e-10        1.915e-10      
                    25.0000        1               
  2.380e-06        1.758e-10        2.104e-10        1.931e-10      
                    25.0000        1               
  2.390e-06        1.758e-10        2.106e-10        1.932e-10      
                    25.0000        1               
  2.400e-06        1.768e-10        2.128e-10        1.948e-10      
                    25.0000        1               
  2.410e-06        1.744e-10        2.111e-10        1.927e-10      
                    25.0000        1               
  2.420e-06        1.741e-10        2.124e-10        1.932e-10      
                    25.0000        1               
  2.430e-06        1.741e-10        2.112e-10        1.926e-10      
                    25.0000        1               
  2.440e-06        1.769e-10        2.114e-10        1.941e-10      
                    25.0000        1               
  2.450e-06        1.767e-10        2.113e-10        1.940e-10      
                    25.0000        1               
  2.460e-06        1.802e-10        2.135e-10        1.969e-10      
                    25.0000        1               
  2.470e-06        1.769e-10        2.122e-10        1.945e-10      
                    25.0000        1               
  2.480e-06        1.766e-10        2.137e-10        1.951e-10      
                    25.0000        1               
  2.490e-06        1.784e-10        2.144e-10        1.964e-10      
                    25.0000        1               
  2.500e-06        1.774e-10        2.133e-10        1.954e-10      
                    25.0000        1               
  2.510e-06        1.771e-10        2.150e-10        1.961e-10      
                    25.0000        1               
  2.520e-06        1.777e-10        2.152e-10        1.965e-10      
                    25.0000        1               
  2.530e-06        1.777e-10        2.155e-10        1.966e-10      
                    25.0000        1               
  2.540e-06        1.774e-10        2.156e-10        1.965e-10      
                    25.0000        1               
  2.550e-06        1.789e-10        2.159e-10        1.974e-10      
                    25.0000        1               
  2.560e-06        1.790e-10        2.150e-10        1.970e-10      
                    25.0000        1               
  2.570e-06        1.786e-10        2.169e-10        1.977e-10      
                    25.0000        1               
  2.580e-06        1.793e-10        2.175e-10        1.984e-10      
                    25.0000        1               
  2.590e-06        1.791e-10        2.155e-10        1.973e-10      
                    25.0000        1               
  2.600e-06        1.797e-10        2.125e-10        1.961e-10      
                    25.0000        1               
  2.610e-06        1.791e-10        2.176e-10        1.984e-10      
                    25.0000        1               
  2.620e-06        1.795e-10        2.180e-10        1.987e-10      
                    25.0000        1               
  2.630e-06        1.796e-10        2.178e-10        1.987e-10      
                    25.0000        1               
  2.640e-06        1.812e-10        2.187e-10        1.999e-10      
                    25.0000        1               
  2.650e-06        1.801e-10        2.188e-10        1.994e-10      
                    25.0000        1               
  2.660e-06        1.806e-10        2.190e-10        1.998e-10      
                    25.0000        1               
  2.670e-06        1.805e-10        2.193e-10        1.999e-10      
                    25.0000        1               
  2.680e-06        1.810e-10        2.196e-10        2.003e-10      
                    25.0000        1               
  2.690e-06        1.807e-10        2.194e-10        2.000e-10      
                    25.0000        1               
  2.700e-06        1.806e-10        2.193e-10        2.000e-10      
                    25.0000        1               
  2.710e-06        1.813e-10        2.200e-10        2.007e-10      
                    25.0000        1               
  2.720e-06        1.818e-10        2.201e-10        2.010e-10      
                    25.0000        1               
  2.730e-06        1.766e-10        2.212e-10        1.989e-10      
                    25.0000        1               
  2.740e-06        1.823e-10        2.210e-10        2.016e-10      
                    25.0000        1               
  2.750e-06        1.827e-10        2.211e-10        2.019e-10      
                    25.0000        1               
  2.760e-06        1.805e-10        2.214e-10        2.009e-10      
                    25.0000        1               
  2.770e-06        1.841e-10        2.224e-10        2.033e-10      
                    25.0000        1               
  2.780e-06        1.839e-10        2.212e-10        2.025e-10      
                    25.0000        1               
  2.790e-06        1.819e-10        2.223e-10        2.021e-10      
                    25.0000        1               
  2.800e-06        1.852e-10        2.221e-10        2.036e-10      
                    25.0000        1               
  2.810e-06        1.841e-10        2.229e-10        2.035e-10      
                    25.0000        1               
  2.820e-06        1.854e-10        2.231e-10        2.042e-10      
                    25.0000        1               
  2.830e-06        1.852e-10        2.239e-10        2.045e-10      
                    25.0000        1               
  2.840e-06        1.851e-10        2.230e-10        2.041e-10      
                    25.0000        1               
  2.850e-06        1.860e-10        2.234e-10        2.047e-10      
                    25.0000        1               
  2.860e-06        1.853e-10        2.241e-10        2.047e-10      
                    25.0000        1               
  2.870e-06        1.826e-10        2.252e-10        2.039e-10      
                    25.0000        1               
  2.880e-06        1.832e-10        2.254e-10        2.043e-10      
                    25.0000        1               
  2.890e-06        1.875e-10        2.262e-10        2.069e-10      
                    25.0000        1               
  2.900e-06        1.832e-10        2.258e-10        2.045e-10      
                    25.0000        1               
  2.910e-06        1.855e-10        2.263e-10        2.059e-10      
                    25.0000        1               
  2.920e-06        1.836e-10        2.259e-10        2.048e-10      
                    25.0000        1               
  2.930e-06        1.838e-10        2.261e-10        2.050e-10      
                    25.0000        1               
  2.940e-06        1.840e-10        2.264e-10        2.052e-10      
                    25.0000        1               
  2.950e-06        1.843e-10        2.267e-10        2.055e-10      
                    25.0000        1               
  2.960e-06        1.869e-10        2.268e-10        2.069e-10      
                    25.0000        1               
  2.970e-06        1.854e-10        2.278e-10        2.066e-10      
                    25.0000        1               
  2.980e-06        1.856e-10        2.281e-10        2.068e-10      
                    25.0000        1               
  2.990e-06        1.857e-10        2.284e-10        2.071e-10      
                    25.0000        1               
  3.000e-06        1.861e-10        2.286e-10        2.073e-10      
                    25.0000        1               
