$DATA1 SOURCE='PrimeSim HSPICE' VERSION='R-2020.12-SP2 linux64' PARAM_COUNT=0
.TITLE '**testbench**'
 period           frequency        t_on             duty_cycle      
 temper           alter#          
  3.313e-10        3.019e+09        1.607e-10          0.4849       
   25.0000        1               
