 ****** HSPICE -- O-2018.09 linux64 (Aug 26 2018) ******                        
  Copyright (c) 1986 - 2022 by Synopsys, Inc. All Rights Reserved.              
  This software and the associated documentation are proprietary
  to Synopsys, Inc. This software may only be used in accordance
  with the terms and conditions of a written license agreement with
  Synopsys, Inc. All other use, reproduction, or distribution of
  this software is strictly prohibited.
  Input File: pseudo_nmos.sp                                                    
  Command line options: /usr/cad/synopsys/hspice/cur/hspice/linux64/hspice -i pseudo_nmos.sp -o pseudo_nmos_pex.lis
 lic:  
 lic: FLEXlm: SDK_11.6.9.6 
 lic: USER:   vlsisj2022063        HOSTNAME: tsri06 
 lic: HOSTID: b4b52fc6a3e9         PID:      8536 
 lic: Using FLEXlm license file: 
 lic: 26585@lstn 
 lic: Checkout 1 hspice 
 lic: License/Maintenance for hspice will expire on 14-may-2025/2021.09 
 lic: 239(in_use)/300(total) FLOATING license(s) on SERVER 26585@lstn 
 lic:   
  **warning** (pseudo_nmos.pex.netlist:7) Global net name, "gnd", in subckt pin list. The pin will be connected to the local net. Recommend to not use global net names in subckt pin lists.
1****** HSPICE -- O-2018.09 linux64 (Aug 26 2018) ******                        
 ******  
 **testbench**

 ****** circuit name directory
 circuit number to circuit name directory
   number circuitname                     definition         multiplier
        0 main circuit
        1 xpseudo_nmos.                   pseudo_nmos        1.00 
        2 xpseudo_nmos.x_pm_pseudo_nmos%net1.
                                            pm_pseudo_nmos%net1
                                                                 1.00 
        3 xpseudo_nmos.x_pm_pseudo_nmos%net2.
                                            pm_pseudo_nmos%net2
                                                                 1.00 
        4 xpseudo_nmos.x_pm_pseudo_nmos%b.
                                            pm_pseudo_nmos%b   1.00 
        5 xpseudo_nmos.x_pm_pseudo_nmos%a.
                                            pm_pseudo_nmos%a   1.00 
        6 xpseudo_nmos.x_pm_pseudo_nmos%d.
                                            pm_pseudo_nmos%d   1.00 
        7 xpseudo_nmos.x_pm_pseudo_nmos%c.
                                            pm_pseudo_nmos%c   1.00 
        8 xpseudo_nmos.x_pm_pseudo_nmos%f.
                                            pm_pseudo_nmos%f   1.00 
        9 xpseudo_nmos.x_pm_pseudo_nmos%e.
                                            pm_pseudo_nmos%e   1.00 
       10 xpseudo_nmos.x_pm_pseudo_nmos%net3.
                                            pm_pseudo_nmos%net3
                                                                 1.00 
       11 xpseudo_nmos.x_pm_pseudo_nmos%vdd.
                                            pm_pseudo_nmos%vdd
                                                                 1.00 
       12 xpseudo_nmos.x_pm_pseudo_nmos%gnd.
                                            pm_pseudo_nmos%gnd
                                                                 1.00 
       13 xpseudo_nmos.x_pm_pseudo_nmos%y.
                                            pm_pseudo_nmos%y   1.00 
       14 xpseudo_nmos.x_pm_pseudo_nmos%net026.
                                            pm_pseudo_nmos%net026
                                                                 1.00 
       15 xpseudo_nmos.x_pm_pseudo_nmos%net_025.
                                            pm_pseudo_nmos%net_025
                                                                 1.00 
       16 xpseudo_nmos.x_pm_pseudo_nmos%net_024.
                                            pm_pseudo_nmos%net_024
                                                                 1.00 
  **info** (pseudo_nmos.sp:36) DC voltage reset to initial transient source value in source 0:vf. new dc=0.0000D+00
  **warning** (pseudo_nmos.pex.netlist.pex:208) Both nodes of element xpseudo_nmos.x_pm_pseudo_nmos%gnd.c17 are connected together; Line ignored.
 

  
      

Element variations(Local):   element              parameter
 *****************************************************************
 ******  option summary
 ******
 runlvl  = 3         bypass  = 2.0000    
             
 Summary of Linear Res Distribution Info
 ---------------------------------------
 |Range          |Total     |Percent(%)|
 |---------------+----------+----------|
 |1e-03  ~  1e-02|3         |1.6667    |
 |1e-02  ~  1e-01|34        |18.8889   |
 |1e-01  ~  1e+00|45        |25.0000   |
 |1e+00  ~  1e+03|98        |54.4444   |
 ---------------------------------------
              
             
 Summary of Linear Cap Distribution Info
 ---------------------------------------
 |Range          |Total     |Percent(%)|
 |---------------+----------+----------|
 |1e-21  ~  1e-20|1         |1.2821    |
 |1e-17  ~  1e-16|29        |37.1795   |
 |1e-16  ~  1e-15|48        |61.5385   |
 ---------------------------------------
              
             
 Summary of Detailed RC Type Statistics
 -------------------------
 |Element Type|Number    |
 |------------+----------|
 |Constant Res|180       |
 |            |          |
 |Constant Cap|78        |
 -------------------------
              
  Opening plot unit= 15
 file=pseudo_nmos_pex.pa0

 **info** dc convergence successful at Newton-Raphson method 
 ******  
 **testbench**

 ****** operating point information tnom=  25.000 temp=  25.000 ******
 ****** operating point status is voltage   simulation time is     0.     
     node    =voltage       node    =voltage       node    =voltage

 + 0:a       =   1.8000   0:b       =   1.8000   0:c       =   1.8000 
 + 0:d       =   1.8000   0:e       =   1.8000   0:f       =   0.     
 + 0:net1    =   1.8000   0:net2    =  11.8853n  0:vdd     =   1.8000 
 + 0:y       =  73.4379m  1:n_a_mm4_=   1.8000   1:n_b_mm3_=   1.8000 
 + 1:n_c_mm9_=   1.8000   1:n_d_mm8_=   1.8000   1:n_e_mm12=   1.8000 
 + 1:n_f_mm13=   0.       1:n_gnd_mm= 786.4844u  1:n_gnd_mm= 725.1690u
 + 1:n_gnd_mm= 450.8827u  1:n_gnd_mm= 450.8828u  1:n_gnd_mm= 893.2868u
 + 1:n_gnd_mm= 450.8827u  1:n_gnd_mm=   1.5264m  1:n_gnd_mm= 110.6376u
 + 1:n_gnd_mm= 110.6376u  1:n_gnd_mm=   2.1616m  1:n_gnd_mm=   1.4652m
 + 1:n_net026=  36.8975m  1:n_net026=  37.0473m  1:n_net1_m=  77.8136m
 + 1:n_net1_m=  73.3389m  1:n_net1_m=  74.0789m  1:n_net2_m=  77.7855m
 + 1:n_net2_m=  74.1781m  1:n_net2_m=  73.2870m  1:n_net3_m=   1.7997 
 + 1:n_net3_m=   1.7997   1:n_net3_m=   1.7997   1:n_net_02=   1.5618 
 + 1:n_net_02=   1.5618   1:n_net_02=  36.8409m  1:n_net_02=  36.9907m
 + 1:n_vdd_mm=   1.7997   1:n_vdd_mm=   1.7959   1:n_vdd_mm=   1.7959 
 + 1:n_vdd_mm=   1.7997   1:n_vdd_mm=   1.7968   1:n_y_mm1_=  76.5171m
 + 1:n_y_mm5_=  71.9539m  1:n_y_mm6_=  73.4379m  1:n_y_mm7_=  71.6677m
 + 2:2       =  74.0789m  2:3       =  74.0789m  2:8       =  77.2069m
 + 2:9       =  74.2712m  2:13      =  73.4917m  2:14      =  74.0789m
 + 2:21      =  74.0789m  2:24      =  74.0789m  2:26      =  74.0789m
 + 2:27      =  74.0789m  2:30      =  74.0789m  2:31      =  74.0789m
 + 3:6       =  77.1788m  3:7       =  74.2425m  3:11      =  73.4399m
 + 3:12      =  74.0271m  3:14      =  74.1781m  3:19      =  74.1781m
 + 3:21      =  74.1781m  3:22      =  74.1781m  3:23      =  74.1781m
 + 3:26      =  74.1781m  3:27      =  74.1781m  3:30      =  74.1781m
 + 4:2       =   1.8000   4:6       =   1.8000   4:9       =   1.8000 
 + 5:2       =   1.8000   5:7       =   1.8000   5:10      =   1.8000 
 + 6:2       =   1.8000   6:6       =   1.8000   6:9       =   1.8000 
 + 7:2       =   1.8000   7:7       =   1.8000   7:10      =   1.8000 
 + 8:2       =   0.       8:6       =   0.       8:9       =   0.     
 + 9:2       =   1.8000   9:7       =   1.8000   9:10      =   1.8000 
 +10:2       =   1.7997  10:3       =   1.7997  10:4       =   1.7997 
 +10:5       =   1.7997  10:8       =   1.7997  10:9       =   1.7997 
 +10:13      =   1.7997  10:14      =   1.7997  10:16      =   1.7997 
 +10:17      =   1.7997  10:18      =   1.7997  10:23      =   1.7997 
 +10:24      =   1.7997  10:26      =   1.7997  11:2       =   1.7996 
 +11:3       =   1.7995  11:4       =   1.7997  11:5       =   1.7997 
 +11:6       =   1.7997  11:7       =   1.7998  11:8       =   1.7999 
 +11:9       =   1.7998  11:10      =   1.7995  11:11      =   1.7996 
 +11:12      =   1.7996  11:13      =   1.7996  11:14      =   1.7997 
 +11:15      =   1.7997  11:16      =   1.7997  11:17      =   1.7999 
 +11:18      =   1.7999  11:19      =   1.7999  11:23      =   1.7965 
 +11:24      =   1.7994  11:28      =   1.7966  11:29      =   1.7995 
 +11:33      =   1.7997  11:34      =   1.7997  11:38      =   1.7974 
 +11:39      =   1.7996  11:45      =   1.7996  12:2       = 575.1610u
 +12:3       = 628.8782u 12:4       = 457.6169u 12:5       = 565.0599u
 +12:6       = 337.0279u 12:7       = 444.1484u 12:8       = 127.5081u
 +12:9       = 313.4227u 12:10      =  93.7662u 12:14      = 636.5350u
 +12:15      = 575.1952u 12:16      = 571.7942u 12:17      = 340.5318u
 +12:18      = 330.2937u 12:19      = 110.6371u 12:20      = 110.6371u
 +12:24      = 450.8827u 12:30      =   1.3736m 12:31      = 786.4844u
 +12:35      =   1.3124m 12:36      = 725.1690u 12:40      = 450.8827u
 +12:41      = 450.8827u 12:45      =   1.8754m 12:46      = 893.2868u
 +12:51      = 110.6376u 12:52      = 110.6373u 12:53      = 786.4844u
 +12:55      = 786.4844u 12:58      = 725.1690u 12:60      = 725.1690u
 +12:63      = 450.8827u 12:65      = 450.8827u 12:68      = 893.2868u
 +12:70      = 893.2868u 12:74      = 786.4844u 12:75      = 786.4844u
 +12:77      = 786.4844u 12:79      = 725.1690u 12:80      = 725.1690u
 +12:82      = 725.1690u 12:84      = 450.8827u 12:85      = 450.8827u
 +12:87      = 450.8827u 12:89      = 893.2868u 12:90      = 893.2868u
 +12:92      = 893.2868u 12:99      = 450.8827u 13:2       =  73.4379m
 +13:3       =  73.4379m 13:4       =  73.3671m 13:5       =  73.3649m
 +13:7       =  73.4379m 13:8       =  73.4402m 13:9       =  73.4379m
 +13:14      =  75.9447m 13:15      =  73.7350m 13:20      =  71.9539m
 +13:21      =  72.9360m 13:24      =  73.4379m 13:25      =  73.4379m

 ******
 **testbench**

 ****** transient analysis tnom=  25.000 temp=  25.000 ******
 rising_delay=  95.9072p  targ= 920.1459n   trig= 920.0500n
 falling_delay= 173.4827p  targ= 990.3235n   trig= 990.1500n
 delay_avg= 134.6950p

          ***** job concluded
 ******  
 **testbench**

 ****** job statistics summary tnom=  25.000 temp=  25.000 ******
  
 ******  Machine Information  ******
 CPU:
 model name	: Intel(R) Core(TM) i7-3770 CPU @ 3.40GHz
 cpu MHz	: 3392.353
  
 OS:
 Linux version 2.6.32-642.el6.x86_64 (mockbuild@worker1.bsys.centos.org) (gcc version 4.4.7 20120313 (Red Hat 4.4.7-17) (GCC) ) #1 SMP Tue May 10 17:27:01 UTC 2016


  ******  HSPICE Threads Information  ******

  Command Line Threads Count :     1
  Available CPU Count        :     8
  Actual Threads Count       :     1


  ******  Circuit Statistics  ******
  # nodes       =     230 # elements   =     283
  # resistors   =     180 # capacitors =      79 # inductors   =       0
  # mutual_inds =       0 # vccs       =       0 # vcvs        =       0
  # cccs        =       0 # ccvs       =       0 # volt_srcs   =       7
  # curr_srcs   =       0 # diodes     =       0 # bjts        =       0
  # jfets       =       0 # mosfets    =      17 # U elements  =       0
  # T elements  =       0 # W elements =       0 # B elements  =       0
  # S elements  =       0 # P elements =       0 # va device   =       0
  # vector_srcs =       0 # N elements =       0


  ******  Runtime Statistics (seconds)  ******

  analysis           time    # points   tot. iter  conv.iter
  op point           0.02           1          21
  transient          0.26     2000001        2134         852 rev=        25
  readin             0.03
  errchk             0.01
  setup              0.00
  output             0.00


           peak memory used        290.85 megabytes
           total cpu time            0.32 seconds
           total elapsed time        0.46 seconds
           job started at     16:21:19 05/27/2022
           job ended   at     16:21:20 05/27/2022


 lic: Release hspice token(s) 
 lic: total license checkout elapse time:        0.27(s)
