$DATA1 SOURCE='PrimeSim HSPICE' VERSION='R-2020.12-SP2 linux64' PARAM_COUNT=0
.TITLE '**testbench**'
 rising_delay     falling_delay    delay_avg        temper          
 alter#          
  1.790e-10        1.478e-10        1.634e-10         25.0000       
1               
