$DATA1 SOURCE='PrimeSim HSPICE' VERSION='R-2020.12-SP2 linux64' PARAM_COUNT=1
.TITLE '**testbench**'
 td               tdcr             tdcf             tcq             
                  tdq              temper           alter#          
  5.000e-09        5.080e-09        1.500e-08        1.220e-10      
                   5.202e-09         25.0000        1               
  5.010e-09        5.070e-09        1.499e-08        1.220e-10      
                   5.192e-09         25.0000        1               
  5.020e-09        5.060e-09        1.498e-08        1.221e-10      
                   5.182e-09         25.0000        1               
  5.030e-09        5.050e-09        1.497e-08        1.221e-10      
                   5.172e-09         25.0000        1               
  5.040e-09        5.040e-09        1.496e-08        1.222e-10      
                   5.162e-09         25.0000        1               
  5.050e-09        5.030e-09        1.495e-08        1.223e-10      
                   5.152e-09         25.0000        1               
  5.060e-09        5.020e-09        1.494e-08        1.226e-10      
                   5.143e-09         25.0000        1               
  5.070e-09        5.010e-09        1.493e-08        1.230e-10      
                   5.133e-09         25.0000        1               
  5.080e-09        5.000e-09        1.492e-08        1.231e-10      
                   5.123e-09         25.0000        1               
  5.090e-09        4.990e-09        1.491e-08        1.233e-10      
                   5.113e-09         25.0000        1               
  5.100e-09        4.980e-09        1.490e-08        1.232e-10      
                   5.103e-09         25.0000        1               
  5.110e-09        4.970e-09        1.489e-08        1.232e-10      
                   5.093e-09         25.0000        1               
  5.120e-09        4.960e-09        1.488e-08        1.231e-10      
                   5.083e-09         25.0000        1               
  5.130e-09        4.950e-09        1.487e-08        1.231e-10      
                   5.073e-09         25.0000        1               
  5.140e-09        4.940e-09        1.486e-08        1.230e-10      
                   5.063e-09         25.0000        1               
  5.150e-09        4.930e-09        1.485e-08        1.230e-10      
                   5.053e-09         25.0000        1               
  5.160e-09        4.920e-09        1.484e-08        1.230e-10      
                   5.043e-09         25.0000        1               
  5.170e-09        4.910e-09        1.483e-08        1.232e-10      
                   5.033e-09         25.0000        1               
  5.180e-09        4.900e-09        1.482e-08        1.238e-10      
                   5.024e-09         25.0000        1               
  5.190e-09        4.890e-09        1.481e-08        1.238e-10      
                   5.014e-09         25.0000        1               
  5.200e-09        4.880e-09        1.480e-08        1.238e-10      
                   5.004e-09         25.0000        1               
  5.210e-09        4.870e-09        1.479e-08        1.238e-10      
                   4.994e-09         25.0000        1               
  5.220e-09        4.860e-09        1.478e-08        1.238e-10      
                   4.984e-09         25.0000        1               
  5.230e-09        4.850e-09        1.477e-08        1.238e-10      
                   4.974e-09         25.0000        1               
  5.240e-09        4.840e-09        1.476e-08        1.238e-10      
                   4.964e-09         25.0000        1               
  5.250e-09        4.830e-09        1.475e-08        1.238e-10      
                   4.954e-09         25.0000        1               
  5.260e-09        4.820e-09        1.474e-08        1.238e-10      
                   4.944e-09         25.0000        1               
  5.270e-09        4.810e-09        1.473e-08        1.238e-10      
                   4.934e-09         25.0000        1               
  5.280e-09        4.800e-09        1.472e-08        1.238e-10      
                   4.924e-09         25.0000        1               
  5.290e-09        4.790e-09        1.471e-08        1.233e-10      
                   4.913e-09         25.0000        1               
  5.300e-09        4.780e-09        1.470e-08        1.233e-10      
                   4.903e-09         25.0000        1               
  5.310e-09        4.770e-09        1.469e-08        1.233e-10      
                   4.893e-09         25.0000        1               
  5.320e-09        4.760e-09        1.468e-08        1.233e-10      
                   4.883e-09         25.0000        1               
  5.330e-09        4.750e-09        1.467e-08        1.232e-10      
                   4.873e-09         25.0000        1               
  5.340e-09        4.740e-09        1.466e-08        1.232e-10      
                   4.863e-09         25.0000        1               
  5.350e-09        4.730e-09        1.465e-08        1.232e-10      
                   4.853e-09         25.0000        1               
  5.360e-09        4.720e-09        1.464e-08        1.232e-10      
                   4.843e-09         25.0000        1               
  5.370e-09        4.710e-09        1.463e-08        1.232e-10      
                   4.833e-09         25.0000        1               
  5.380e-09        4.700e-09        1.462e-08        1.232e-10      
                   4.823e-09         25.0000        1               
  5.390e-09        4.690e-09        1.461e-08        1.232e-10      
                   4.813e-09         25.0000        1               
  5.400e-09        4.680e-09        1.460e-08        1.232e-10      
                   4.803e-09         25.0000        1               
  5.410e-09        4.670e-09        1.459e-08        1.232e-10      
                   4.793e-09         25.0000        1               
  5.420e-09        4.660e-09        1.458e-08        1.231e-10      
                   4.783e-09         25.0000        1               
  5.430e-09        4.650e-09        1.457e-08        1.231e-10      
                   4.773e-09         25.0000        1               
  5.440e-09        4.640e-09        1.456e-08        1.231e-10      
                   4.763e-09         25.0000        1               
  5.450e-09        4.630e-09        1.455e-08        1.227e-10      
                   4.753e-09         25.0000        1               
  5.460e-09        4.620e-09        1.454e-08        1.227e-10      
                   4.743e-09         25.0000        1               
  5.470e-09        4.610e-09        1.453e-08        1.226e-10      
                   4.733e-09         25.0000        1               
  5.480e-09        4.600e-09        1.452e-08        1.226e-10      
                   4.723e-09         25.0000        1               
  5.490e-09        4.590e-09        1.451e-08        1.225e-10      
                   4.713e-09         25.0000        1               
  5.500e-09        4.580e-09        1.450e-08        1.225e-10      
                   4.702e-09         25.0000        1               
  5.510e-09        4.570e-09        1.449e-08        1.224e-10      
                   4.692e-09         25.0000        1               
  5.520e-09        4.560e-09        1.448e-08        1.224e-10      
                   4.682e-09         25.0000        1               
  5.530e-09        4.550e-09        1.447e-08        1.224e-10      
                   4.672e-09         25.0000        1               
  5.540e-09        4.540e-09        1.446e-08        1.224e-10      
                   4.662e-09         25.0000        1               
  5.550e-09        4.530e-09        1.445e-08        1.224e-10      
                   4.652e-09         25.0000        1               
  5.560e-09        4.520e-09        1.444e-08        1.224e-10      
                   4.642e-09         25.0000        1               
  5.570e-09        4.510e-09        1.443e-08        1.224e-10      
                   4.632e-09         25.0000        1               
  5.580e-09        4.500e-09        1.442e-08        1.224e-10      
                   4.622e-09         25.0000        1               
  5.590e-09        4.490e-09        1.441e-08        1.224e-10      
                   4.612e-09         25.0000        1               
  5.600e-09        4.480e-09        1.440e-08        1.224e-10      
                   4.602e-09         25.0000        1               
  5.610e-09        4.470e-09        1.439e-08        1.224e-10      
                   4.592e-09         25.0000        1               
  5.620e-09        4.460e-09        1.438e-08        1.224e-10      
                   4.582e-09         25.0000        1               
  5.630e-09        4.450e-09        1.437e-08        1.224e-10      
                   4.572e-09         25.0000        1               
  5.640e-09        4.440e-09        1.436e-08        1.228e-10      
                   4.563e-09         25.0000        1               
  5.650e-09        4.430e-09        1.435e-08        1.228e-10      
                   4.553e-09         25.0000        1               
  5.660e-09        4.420e-09        1.434e-08        1.228e-10      
                   4.543e-09         25.0000        1               
  5.670e-09        4.410e-09        1.433e-08        1.228e-10      
                   4.533e-09         25.0000        1               
  5.680e-09        4.400e-09        1.432e-08        1.228e-10      
                   4.523e-09         25.0000        1               
  5.690e-09        4.390e-09        1.431e-08        1.228e-10      
                   4.513e-09         25.0000        1               
  5.700e-09        4.380e-09        1.430e-08        1.228e-10      
                   4.503e-09         25.0000        1               
  5.710e-09        4.370e-09        1.429e-08        1.229e-10      
                   4.493e-09         25.0000        1               
  5.720e-09        4.360e-09        1.428e-08        1.229e-10      
                   4.483e-09         25.0000        1               
  5.730e-09        4.350e-09        1.427e-08        1.231e-10      
                   4.473e-09         25.0000        1               
  5.740e-09        4.340e-09        1.426e-08        1.231e-10      
                   4.463e-09         25.0000        1               
  5.750e-09        4.330e-09        1.425e-08        1.231e-10      
                   4.453e-09         25.0000        1               
  5.760e-09        4.320e-09        1.424e-08        1.231e-10      
                   4.443e-09         25.0000        1               
  5.770e-09        4.310e-09        1.423e-08        1.232e-10      
                   4.433e-09         25.0000        1               
  5.780e-09        4.300e-09        1.422e-08        1.232e-10      
                   4.423e-09         25.0000        1               
  5.790e-09        4.290e-09        1.421e-08        1.215e-10      
                   4.411e-09         25.0000        1               
  5.800e-09        4.280e-09        1.420e-08        1.216e-10      
                   4.402e-09         25.0000        1               
  5.810e-09        4.270e-09        1.419e-08        1.216e-10      
                   4.392e-09         25.0000        1               
  5.820e-09        4.260e-09        1.418e-08        1.218e-10      
                   4.382e-09         25.0000        1               
  5.830e-09        4.250e-09        1.417e-08        1.220e-10      
                   4.372e-09         25.0000        1               
  5.840e-09        4.240e-09        1.416e-08        1.221e-10      
                   4.362e-09         25.0000        1               
  5.850e-09        4.230e-09        1.415e-08        1.222e-10      
                   4.352e-09         25.0000        1               
  5.860e-09        4.220e-09        1.414e-08        1.223e-10      
                   4.342e-09         25.0000        1               
  5.870e-09        4.210e-09        1.413e-08        1.224e-10      
                   4.332e-09         25.0000        1               
  5.880e-09        4.200e-09        1.412e-08        1.238e-10      
                   4.324e-09         25.0000        1               
  5.890e-09        4.190e-09        1.411e-08        1.238e-10      
                   4.314e-09         25.0000        1               
  5.900e-09        4.180e-09        1.410e-08        1.221e-10      
                   4.302e-09         25.0000        1               
  5.910e-09        4.170e-09        1.409e-08        1.221e-10      
                   4.292e-09         25.0000        1               
  5.920e-09        4.160e-09        1.408e-08        1.221e-10      
                   4.282e-09         25.0000        1               
  5.930e-09        4.150e-09        1.407e-08        1.221e-10      
                   4.272e-09         25.0000        1               
  5.940e-09        4.140e-09        1.406e-08        1.221e-10      
                   4.262e-09         25.0000        1               
  5.950e-09        4.130e-09        1.405e-08        1.221e-10      
                   4.252e-09         25.0000        1               
  5.960e-09        4.120e-09        1.404e-08        1.220e-10      
                   4.242e-09         25.0000        1               
  5.970e-09        4.110e-09        1.403e-08        1.228e-10      
                   4.233e-09         25.0000        1               
  5.980e-09        4.100e-09        1.402e-08        1.228e-10      
                   4.223e-09         25.0000        1               
  5.990e-09        4.090e-09        1.401e-08        1.228e-10      
                   4.213e-09         25.0000        1               
  6.000e-09        4.080e-09        1.400e-08        1.228e-10      
                   4.203e-09         25.0000        1               
  6.010e-09        4.070e-09        1.399e-08        1.228e-10      
                   4.193e-09         25.0000        1               
  6.020e-09        4.060e-09        1.398e-08        1.229e-10      
                   4.183e-09         25.0000        1               
  6.030e-09        4.050e-09        1.397e-08        1.229e-10      
                   4.173e-09         25.0000        1               
  6.040e-09        4.040e-09        1.396e-08        1.229e-10      
                   4.163e-09         25.0000        1               
  6.050e-09        4.030e-09        1.395e-08        1.229e-10      
                   4.153e-09         25.0000        1               
  6.060e-09        4.020e-09        1.394e-08        1.229e-10      
                   4.143e-09         25.0000        1               
  6.070e-09        4.010e-09        1.393e-08        1.229e-10      
                   4.133e-09         25.0000        1               
  6.080e-09        4.000e-09        1.392e-08        1.230e-10      
                   4.123e-09         25.0000        1               
  6.090e-09        3.990e-09        1.391e-08        1.230e-10      
                   4.113e-09         25.0000        1               
  6.100e-09        3.980e-09        1.390e-08        1.230e-10      
                   4.103e-09         25.0000        1               
  6.110e-09        3.970e-09        1.389e-08        1.230e-10      
                   4.093e-09         25.0000        1               
  6.120e-09        3.960e-09        1.388e-08        1.229e-10      
                   4.083e-09         25.0000        1               
  6.130e-09        3.950e-09        1.387e-08        1.229e-10      
                   4.073e-09         25.0000        1               
  6.140e-09        3.940e-09        1.386e-08        1.228e-10      
                   4.063e-09         25.0000        1               
  6.150e-09        3.930e-09        1.385e-08        1.228e-10      
                   4.053e-09         25.0000        1               
  6.160e-09        3.920e-09        1.384e-08        1.227e-10      
                   4.043e-09         25.0000        1               
  6.170e-09        3.910e-09        1.383e-08        1.227e-10      
                   4.033e-09         25.0000        1               
  6.180e-09        3.900e-09        1.382e-08        1.226e-10      
                   4.023e-09         25.0000        1               
  6.190e-09        3.890e-09        1.381e-08        1.225e-10      
                   4.013e-09         25.0000        1               
  6.200e-09        3.880e-09        1.380e-08        1.225e-10      
                   4.002e-09         25.0000        1               
  6.210e-09        3.870e-09        1.379e-08        1.224e-10      
                   3.992e-09         25.0000        1               
  6.220e-09        3.860e-09        1.378e-08        1.218e-10      
                   3.982e-09         25.0000        1               
  6.230e-09        3.850e-09        1.377e-08        1.218e-10      
                   3.972e-09         25.0000        1               
  6.240e-09        3.840e-09        1.376e-08        1.218e-10      
                   3.962e-09         25.0000        1               
  6.250e-09        3.830e-09        1.375e-08        1.218e-10      
                   3.952e-09         25.0000        1               
  6.260e-09        3.820e-09        1.374e-08        1.218e-10      
                   3.942e-09         25.0000        1               
  6.270e-09        3.810e-09        1.373e-08        1.217e-10      
                   3.932e-09         25.0000        1               
  6.280e-09        3.800e-09        1.372e-08        1.217e-10      
                   3.922e-09         25.0000        1               
  6.290e-09        3.790e-09        1.371e-08        1.217e-10      
                   3.912e-09         25.0000        1               
  6.300e-09        3.780e-09        1.370e-08        1.217e-10      
                   3.902e-09         25.0000        1               
  6.310e-09        3.770e-09        1.369e-08        1.214e-10      
                   3.891e-09         25.0000        1               
  6.320e-09        3.760e-09        1.368e-08        1.218e-10      
                   3.882e-09         25.0000        1               
  6.330e-09        3.750e-09        1.367e-08        1.218e-10      
                   3.872e-09         25.0000        1               
  6.340e-09        3.740e-09        1.366e-08        1.218e-10      
                   3.862e-09         25.0000        1               
  6.350e-09        3.730e-09        1.365e-08        1.218e-10      
                   3.852e-09         25.0000        1               
  6.360e-09        3.720e-09        1.364e-08        1.218e-10      
                   3.842e-09         25.0000        1               
  6.370e-09        3.710e-09        1.363e-08        1.219e-10      
                   3.832e-09         25.0000        1               
  6.380e-09        3.700e-09        1.362e-08        1.219e-10      
                   3.822e-09         25.0000        1               
  6.390e-09        3.690e-09        1.361e-08        1.219e-10      
                   3.812e-09         25.0000        1               
  6.400e-09        3.680e-09        1.360e-08        1.219e-10      
                   3.802e-09         25.0000        1               
  6.410e-09        3.670e-09        1.359e-08        1.220e-10      
                   3.792e-09         25.0000        1               
  6.420e-09        3.660e-09        1.358e-08        1.229e-10      
                   3.783e-09         25.0000        1               
  6.430e-09        3.650e-09        1.357e-08        1.229e-10      
                   3.773e-09         25.0000        1               
  6.440e-09        3.640e-09        1.356e-08        1.229e-10      
                   3.763e-09         25.0000        1               
  6.450e-09        3.630e-09        1.355e-08        1.229e-10      
                   3.753e-09         25.0000        1               
  6.460e-09        3.620e-09        1.354e-08        1.229e-10      
                   3.743e-09         25.0000        1               
  6.470e-09        3.610e-09        1.353e-08        1.222e-10      
                   3.732e-09         25.0000        1               
  6.480e-09        3.600e-09        1.352e-08        1.222e-10      
                   3.722e-09         25.0000        1               
  6.490e-09        3.590e-09        1.351e-08        1.220e-10      
                   3.712e-09         25.0000        1               
  6.500e-09        3.580e-09        1.350e-08        1.220e-10      
                   3.702e-09         25.0000        1               
  6.510e-09        3.570e-09        1.349e-08        1.220e-10      
                   3.692e-09         25.0000        1               
  6.520e-09        3.560e-09        1.348e-08        1.221e-10      
                   3.682e-09         25.0000        1               
  6.530e-09        3.550e-09        1.347e-08        1.221e-10      
                   3.672e-09         25.0000        1               
  6.540e-09        3.540e-09        1.346e-08        1.222e-10      
                   3.662e-09         25.0000        1               
  6.550e-09        3.530e-09        1.345e-08        1.223e-10      
                   3.652e-09         25.0000        1               
  6.560e-09        3.520e-09        1.344e-08        1.226e-10      
                   3.643e-09         25.0000        1               
  6.570e-09        3.510e-09        1.343e-08        1.228e-10      
                   3.633e-09         25.0000        1               
  6.580e-09        3.500e-09        1.342e-08        1.231e-10      
                   3.623e-09         25.0000        1               
  6.590e-09        3.490e-09        1.341e-08        1.233e-10      
                   3.613e-09         25.0000        1               
  6.600e-09        3.480e-09        1.340e-08        1.232e-10      
                   3.603e-09         25.0000        1               
  6.610e-09        3.470e-09        1.339e-08        1.232e-10      
                   3.593e-09         25.0000        1               
  6.620e-09        3.460e-09        1.338e-08        1.231e-10      
                   3.583e-09         25.0000        1               
  6.630e-09        3.450e-09        1.337e-08        1.231e-10      
                   3.573e-09         25.0000        1               
  6.640e-09        3.440e-09        1.336e-08        1.230e-10      
                   3.563e-09         25.0000        1               
  6.650e-09        3.430e-09        1.335e-08        1.230e-10      
                   3.553e-09         25.0000        1               
  6.660e-09        3.420e-09        1.334e-08        1.230e-10      
                   3.543e-09         25.0000        1               
  6.670e-09        3.410e-09        1.333e-08        1.230e-10      
                   3.533e-09         25.0000        1               
  6.680e-09        3.400e-09        1.332e-08        1.238e-10      
                   3.524e-09         25.0000        1               
  6.690e-09        3.390e-09        1.331e-08        1.238e-10      
                   3.514e-09         25.0000        1               
  6.700e-09        3.380e-09        1.330e-08        1.238e-10      
                   3.504e-09         25.0000        1               
  6.710e-09        3.370e-09        1.329e-08        1.238e-10      
                   3.494e-09         25.0000        1               
  6.720e-09        3.360e-09        1.328e-08        1.238e-10      
                   3.484e-09         25.0000        1               
  6.730e-09        3.350e-09        1.327e-08        1.238e-10      
                   3.474e-09         25.0000        1               
  6.740e-09        3.340e-09        1.326e-08        1.238e-10      
                   3.464e-09         25.0000        1               
  6.750e-09        3.330e-09        1.325e-08        1.238e-10      
                   3.454e-09         25.0000        1               
  6.760e-09        3.320e-09        1.324e-08        1.238e-10      
                   3.444e-09         25.0000        1               
  6.770e-09        3.310e-09        1.323e-08        1.238e-10      
                   3.434e-09         25.0000        1               
  6.780e-09        3.300e-09        1.322e-08        1.238e-10      
                   3.424e-09         25.0000        1               
  6.790e-09        3.290e-09        1.321e-08        1.233e-10      
                   3.413e-09         25.0000        1               
  6.800e-09        3.280e-09        1.320e-08        1.233e-10      
                   3.403e-09         25.0000        1               
  6.810e-09        3.270e-09        1.319e-08        1.233e-10      
                   3.393e-09         25.0000        1               
  6.820e-09        3.260e-09        1.318e-08        1.233e-10      
                   3.383e-09         25.0000        1               
  6.830e-09        3.250e-09        1.317e-08        1.232e-10      
                   3.373e-09         25.0000        1               
  6.840e-09        3.240e-09        1.316e-08        1.232e-10      
                   3.363e-09         25.0000        1               
  6.850e-09        3.230e-09        1.315e-08        1.232e-10      
                   3.353e-09         25.0000        1               
  6.860e-09        3.220e-09        1.314e-08        1.232e-10      
                   3.343e-09         25.0000        1               
  6.870e-09        3.210e-09        1.313e-08        1.232e-10      
                   3.333e-09         25.0000        1               
  6.880e-09        3.200e-09        1.312e-08        1.232e-10      
                   3.323e-09         25.0000        1               
  6.890e-09        3.190e-09        1.311e-08        1.232e-10      
                   3.313e-09         25.0000        1               
  6.900e-09        3.180e-09        1.310e-08        1.232e-10      
                   3.303e-09         25.0000        1               
  6.910e-09        3.170e-09        1.309e-08        1.232e-10      
                   3.293e-09         25.0000        1               
  6.920e-09        3.160e-09        1.308e-08        1.231e-10      
                   3.283e-09         25.0000        1               
  6.930e-09        3.150e-09        1.307e-08        1.231e-10      
                   3.273e-09         25.0000        1               
  6.940e-09        3.140e-09        1.306e-08        1.231e-10      
                   3.263e-09         25.0000        1               
  6.950e-09        3.130e-09        1.305e-08        1.227e-10      
                   3.253e-09         25.0000        1               
  6.960e-09        3.120e-09        1.304e-08        1.227e-10      
                   3.243e-09         25.0000        1               
  6.970e-09        3.110e-09        1.303e-08        1.226e-10      
                   3.233e-09         25.0000        1               
  6.980e-09        3.100e-09        1.302e-08        1.226e-10      
                   3.223e-09         25.0000        1               
  6.990e-09        3.090e-09        1.301e-08        1.225e-10      
                   3.213e-09         25.0000        1               
  7.000e-09        3.080e-09        1.300e-08        1.225e-10      
                   3.202e-09         25.0000        1               
  7.010e-09        3.070e-09        1.299e-08        1.224e-10      
                   3.192e-09         25.0000        1               
  7.020e-09        3.060e-09        1.298e-08        1.224e-10      
                   3.182e-09         25.0000        1               
  7.030e-09        3.050e-09        1.297e-08        1.224e-10      
                   3.172e-09         25.0000        1               
  7.040e-09        3.040e-09        1.296e-08        1.224e-10      
                   3.162e-09         25.0000        1               
  7.050e-09        3.030e-09        1.295e-08        1.224e-10      
                   3.152e-09         25.0000        1               
  7.060e-09        3.020e-09        1.294e-08        1.224e-10      
                   3.142e-09         25.0000        1               
  7.070e-09        3.010e-09        1.293e-08        1.224e-10      
                   3.132e-09         25.0000        1               
  7.080e-09        3.000e-09        1.292e-08        1.224e-10      
                   3.122e-09         25.0000        1               
  7.090e-09        2.990e-09        1.291e-08        1.224e-10      
                   3.112e-09         25.0000        1               
  7.100e-09        2.980e-09        1.290e-08        1.224e-10      
                   3.102e-09         25.0000        1               
  7.110e-09        2.970e-09        1.289e-08        1.224e-10      
                   3.092e-09         25.0000        1               
  7.120e-09        2.960e-09        1.288e-08        1.224e-10      
                   3.082e-09         25.0000        1               
  7.130e-09        2.950e-09        1.287e-08        1.224e-10      
                   3.072e-09         25.0000        1               
  7.140e-09        2.940e-09        1.286e-08        1.228e-10      
                   3.063e-09         25.0000        1               
  7.150e-09        2.930e-09        1.285e-08        1.228e-10      
                   3.053e-09         25.0000        1               
  7.160e-09        2.920e-09        1.284e-08        1.228e-10      
                   3.043e-09         25.0000        1               
  7.170e-09        2.910e-09        1.283e-08        1.228e-10      
                   3.033e-09         25.0000        1               
  7.180e-09        2.900e-09        1.282e-08        1.228e-10      
                   3.023e-09         25.0000        1               
  7.190e-09        2.890e-09        1.281e-08        1.228e-10      
                   3.013e-09         25.0000        1               
  7.200e-09        2.880e-09        1.280e-08        1.228e-10      
                   3.003e-09         25.0000        1               
  7.210e-09        2.870e-09        1.279e-08        1.229e-10      
                   2.993e-09         25.0000        1               
  7.220e-09        2.860e-09        1.278e-08        1.229e-10      
                   2.983e-09         25.0000        1               
  7.230e-09        2.850e-09        1.277e-08        1.231e-10      
                   2.973e-09         25.0000        1               
  7.240e-09        2.840e-09        1.276e-08        1.231e-10      
                   2.963e-09         25.0000        1               
  7.250e-09        2.830e-09        1.275e-08        1.231e-10      
                   2.953e-09         25.0000        1               
  7.260e-09        2.820e-09        1.274e-08        1.231e-10      
                   2.943e-09         25.0000        1               
  7.270e-09        2.810e-09        1.273e-08        1.232e-10      
                   2.933e-09         25.0000        1               
  7.280e-09        2.800e-09        1.272e-08        1.232e-10      
                   2.923e-09         25.0000        1               
  7.290e-09        2.790e-09        1.271e-08        1.215e-10      
                   2.911e-09         25.0000        1               
  7.300e-09        2.780e-09        1.270e-08        1.216e-10      
                   2.902e-09         25.0000        1               
  7.310e-09        2.770e-09        1.269e-08        1.216e-10      
                   2.892e-09         25.0000        1               
  7.320e-09        2.760e-09        1.268e-08        1.218e-10      
                   2.882e-09         25.0000        1               
  7.330e-09        2.750e-09        1.267e-08        1.220e-10      
                   2.872e-09         25.0000        1               
  7.340e-09        2.740e-09        1.266e-08        1.221e-10      
                   2.862e-09         25.0000        1               
  7.350e-09        2.730e-09        1.265e-08        1.222e-10      
                   2.852e-09         25.0000        1               
  7.360e-09        2.720e-09        1.264e-08        1.223e-10      
                   2.842e-09         25.0000        1               
  7.370e-09        2.710e-09        1.263e-08        1.224e-10      
                   2.832e-09         25.0000        1               
  7.380e-09        2.700e-09        1.262e-08        1.238e-10      
                   2.824e-09         25.0000        1               
  7.390e-09        2.690e-09        1.261e-08        1.238e-10      
                   2.814e-09         25.0000        1               
  7.400e-09        2.680e-09        1.260e-08        1.221e-10      
                   2.802e-09         25.0000        1               
  7.410e-09        2.670e-09        1.259e-08        1.221e-10      
                   2.792e-09         25.0000        1               
  7.420e-09        2.660e-09        1.258e-08        1.221e-10      
                   2.782e-09         25.0000        1               
  7.430e-09        2.650e-09        1.257e-08        1.221e-10      
                   2.772e-09         25.0000        1               
  7.440e-09        2.640e-09        1.256e-08        1.221e-10      
                   2.762e-09         25.0000        1               
  7.450e-09        2.630e-09        1.255e-08        1.221e-10      
                   2.752e-09         25.0000        1               
  7.460e-09        2.620e-09        1.254e-08        1.220e-10      
                   2.742e-09         25.0000        1               
  7.470e-09        2.610e-09        1.253e-08        1.228e-10      
                   2.733e-09         25.0000        1               
  7.480e-09        2.600e-09        1.252e-08        1.228e-10      
                   2.723e-09         25.0000        1               
  7.490e-09        2.590e-09        1.251e-08        1.228e-10      
                   2.713e-09         25.0000        1               
  7.500e-09        2.580e-09        1.250e-08        1.228e-10      
                   2.703e-09         25.0000        1               
  7.510e-09        2.570e-09        1.249e-08        1.228e-10      
                   2.693e-09         25.0000        1               
  7.520e-09        2.560e-09        1.248e-08        1.229e-10      
                   2.683e-09         25.0000        1               
  7.530e-09        2.550e-09        1.247e-08        1.229e-10      
                   2.673e-09         25.0000        1               
  7.540e-09        2.540e-09        1.246e-08        1.229e-10      
                   2.663e-09         25.0000        1               
  7.550e-09        2.530e-09        1.245e-08        1.229e-10      
                   2.653e-09         25.0000        1               
  7.560e-09        2.520e-09        1.244e-08        1.229e-10      
                   2.643e-09         25.0000        1               
  7.570e-09        2.510e-09        1.243e-08        1.229e-10      
                   2.633e-09         25.0000        1               
  7.580e-09        2.500e-09        1.242e-08        1.230e-10      
                   2.623e-09         25.0000        1               
  7.590e-09        2.490e-09        1.241e-08        1.230e-10      
                   2.613e-09         25.0000        1               
  7.600e-09        2.480e-09        1.240e-08        1.230e-10      
                   2.603e-09         25.0000        1               
  7.610e-09        2.470e-09        1.239e-08        1.230e-10      
                   2.593e-09         25.0000        1               
  7.620e-09        2.460e-09        1.238e-08        1.229e-10      
                   2.583e-09         25.0000        1               
  7.630e-09        2.450e-09        1.237e-08        1.229e-10      
                   2.573e-09         25.0000        1               
  7.640e-09        2.440e-09        1.236e-08        1.228e-10      
                   2.563e-09         25.0000        1               
  7.650e-09        2.430e-09        1.235e-08        1.228e-10      
                   2.553e-09         25.0000        1               
  7.660e-09        2.420e-09        1.234e-08        1.227e-10      
                   2.543e-09         25.0000        1               
  7.670e-09        2.410e-09        1.233e-08        1.227e-10      
                   2.533e-09         25.0000        1               
  7.680e-09        2.400e-09        1.232e-08        1.226e-10      
                   2.523e-09         25.0000        1               
  7.690e-09        2.390e-09        1.231e-08        1.225e-10      
                   2.513e-09         25.0000        1               
  7.700e-09        2.380e-09        1.230e-08        1.225e-10      
                   2.502e-09         25.0000        1               
  7.710e-09        2.370e-09        1.229e-08        1.224e-10      
                   2.492e-09         25.0000        1               
  7.720e-09        2.360e-09        1.228e-08        1.218e-10      
                   2.482e-09         25.0000        1               
  7.730e-09        2.350e-09        1.227e-08        1.218e-10      
                   2.472e-09         25.0000        1               
  7.740e-09        2.340e-09        1.226e-08        1.218e-10      
                   2.462e-09         25.0000        1               
  7.750e-09        2.330e-09        1.225e-08        1.218e-10      
                   2.452e-09         25.0000        1               
  7.760e-09        2.320e-09        1.224e-08        1.218e-10      
                   2.442e-09         25.0000        1               
  7.770e-09        2.310e-09        1.223e-08        1.217e-10      
                   2.432e-09         25.0000        1               
  7.780e-09        2.300e-09        1.222e-08        1.217e-10      
                   2.422e-09         25.0000        1               
  7.790e-09        2.290e-09        1.221e-08        1.217e-10      
                   2.412e-09         25.0000        1               
  7.800e-09        2.280e-09        1.220e-08        1.217e-10      
                   2.402e-09         25.0000        1               
  7.810e-09        2.270e-09        1.219e-08        1.214e-10      
                   2.391e-09         25.0000        1               
  7.820e-09        2.260e-09        1.218e-08        1.218e-10      
                   2.382e-09         25.0000        1               
  7.830e-09        2.250e-09        1.217e-08        1.218e-10      
                   2.372e-09         25.0000        1               
  7.840e-09        2.240e-09        1.216e-08        1.218e-10      
                   2.362e-09         25.0000        1               
  7.850e-09        2.230e-09        1.215e-08        1.218e-10      
                   2.352e-09         25.0000        1               
  7.860e-09        2.220e-09        1.214e-08        1.218e-10      
                   2.342e-09         25.0000        1               
  7.870e-09        2.210e-09        1.213e-08        1.219e-10      
                   2.332e-09         25.0000        1               
  7.880e-09        2.200e-09        1.212e-08        1.219e-10      
                   2.322e-09         25.0000        1               
  7.890e-09        2.190e-09        1.211e-08        1.219e-10      
                   2.312e-09         25.0000        1               
  7.900e-09        2.180e-09        1.210e-08        1.219e-10      
                   2.302e-09         25.0000        1               
  7.910e-09        2.170e-09        1.209e-08        1.220e-10      
                   2.292e-09         25.0000        1               
  7.920e-09        2.160e-09        1.208e-08        1.229e-10      
                   2.283e-09         25.0000        1               
  7.930e-09        2.150e-09        1.207e-08        1.229e-10      
                   2.273e-09         25.0000        1               
  7.940e-09        2.140e-09        1.206e-08        1.229e-10      
                   2.263e-09         25.0000        1               
  7.950e-09        2.130e-09        1.205e-08        1.229e-10      
                   2.253e-09         25.0000        1               
  7.960e-09        2.120e-09        1.204e-08        1.229e-10      
                   2.243e-09         25.0000        1               
  7.970e-09        2.110e-09        1.203e-08        1.222e-10      
                   2.232e-09         25.0000        1               
  7.980e-09        2.100e-09        1.202e-08        1.222e-10      
                   2.222e-09         25.0000        1               
  7.990e-09        2.090e-09        1.201e-08        1.220e-10      
                   2.212e-09         25.0000        1               
  8.000e-09        2.080e-09        1.200e-08        1.220e-10      
                   2.202e-09         25.0000        1               
  8.010e-09        2.070e-09        1.199e-08        1.220e-10      
                   2.192e-09         25.0000        1               
  8.020e-09        2.060e-09        1.198e-08        1.221e-10      
                   2.182e-09         25.0000        1               
  8.030e-09        2.050e-09        1.197e-08        1.221e-10      
                   2.172e-09         25.0000        1               
  8.040e-09        2.040e-09        1.196e-08        1.222e-10      
                   2.162e-09         25.0000        1               
  8.050e-09        2.030e-09        1.195e-08        1.223e-10      
                   2.152e-09         25.0000        1               
  8.060e-09        2.020e-09        1.194e-08        1.226e-10      
                   2.143e-09         25.0000        1               
  8.070e-09        2.010e-09        1.193e-08        1.228e-10      
                   2.133e-09         25.0000        1               
  8.080e-09        2.000e-09        1.192e-08        1.231e-10      
                   2.123e-09         25.0000        1               
  8.090e-09        1.990e-09        1.191e-08        1.233e-10      
                   2.113e-09         25.0000        1               
  8.100e-09        1.980e-09        1.190e-08        1.232e-10      
                   2.103e-09         25.0000        1               
  8.110e-09        1.970e-09        1.189e-08        1.232e-10      
                   2.093e-09         25.0000        1               
  8.120e-09        1.960e-09        1.188e-08        1.231e-10      
                   2.083e-09         25.0000        1               
  8.130e-09        1.950e-09        1.187e-08        1.231e-10      
                   2.073e-09         25.0000        1               
  8.140e-09        1.940e-09        1.186e-08        1.230e-10      
                   2.063e-09         25.0000        1               
  8.150e-09        1.930e-09        1.185e-08        1.230e-10      
                   2.053e-09         25.0000        1               
  8.160e-09        1.920e-09        1.184e-08        1.230e-10      
                   2.043e-09         25.0000        1               
  8.170e-09        1.910e-09        1.183e-08        1.230e-10      
                   2.033e-09         25.0000        1               
  8.180e-09        1.900e-09        1.182e-08        1.220e-10      
                   2.022e-09         25.0000        1               
  8.190e-09        1.890e-09        1.181e-08        1.220e-10      
                   2.012e-09         25.0000        1               
  8.200e-09        1.880e-09        1.180e-08        1.220e-10      
                   2.002e-09         25.0000        1               
  8.210e-09        1.870e-09        1.179e-08        1.220e-10      
                   1.992e-09         25.0000        1               
  8.220e-09        1.860e-09        1.178e-08        1.220e-10      
                   1.982e-09         25.0000        1               
  8.230e-09        1.850e-09        1.177e-08        1.220e-10      
                   1.972e-09         25.0000        1               
  8.240e-09        1.840e-09        1.176e-08        1.218e-10      
                   1.962e-09         25.0000        1               
  8.250e-09        1.830e-09        1.175e-08        1.218e-10      
                   1.952e-09         25.0000        1               
  8.260e-09        1.820e-09        1.174e-08        1.218e-10      
                   1.942e-09         25.0000        1               
  8.270e-09        1.810e-09        1.173e-08        1.218e-10      
                   1.932e-09         25.0000        1               
  8.280e-09        1.800e-09        1.172e-08        1.218e-10      
                   1.922e-09         25.0000        1               
  8.290e-09        1.790e-09        1.171e-08        1.217e-10      
                   1.912e-09         25.0000        1               
  8.300e-09        1.780e-09        1.170e-08        1.217e-10      
                   1.902e-09         25.0000        1               
  8.310e-09        1.770e-09        1.169e-08        1.217e-10      
                   1.892e-09         25.0000        1               
  8.320e-09        1.760e-09        1.168e-08        1.216e-10      
                   1.882e-09         25.0000        1               
  8.330e-09        1.750e-09        1.167e-08        1.216e-10      
                   1.872e-09         25.0000        1               
  8.340e-09        1.740e-09        1.166e-08        1.216e-10      
                   1.862e-09         25.0000        1               
  8.350e-09        1.730e-09        1.165e-08        1.216e-10      
                   1.852e-09         25.0000        1               
  8.360e-09        1.720e-09        1.164e-08        1.215e-10      
                   1.842e-09         25.0000        1               
  8.370e-09        1.710e-09        1.163e-08        1.215e-10      
                   1.832e-09         25.0000        1               
  8.380e-09        1.700e-09        1.162e-08        1.215e-10      
                   1.822e-09         25.0000        1               
  8.390e-09        1.690e-09        1.161e-08        1.215e-10      
                   1.811e-09         25.0000        1               
  8.400e-09        1.680e-09        1.160e-08        1.215e-10      
                   1.801e-09         25.0000        1               
  8.410e-09        1.670e-09        1.159e-08        1.215e-10      
                   1.791e-09         25.0000        1               
  8.420e-09        1.660e-09        1.158e-08        1.214e-10      
                   1.781e-09         25.0000        1               
  8.430e-09        1.650e-09        1.157e-08        1.214e-10      
                   1.771e-09         25.0000        1               
  8.440e-09        1.640e-09        1.156e-08        1.214e-10      
                   1.761e-09         25.0000        1               
  8.450e-09        1.630e-09        1.155e-08        1.217e-10      
                   1.752e-09         25.0000        1               
  8.460e-09        1.620e-09        1.154e-08        1.217e-10      
                   1.742e-09         25.0000        1               
  8.470e-09        1.610e-09        1.153e-08        1.217e-10      
                   1.732e-09         25.0000        1               
  8.480e-09        1.600e-09        1.152e-08        1.218e-10      
                   1.722e-09         25.0000        1               
  8.490e-09        1.590e-09        1.151e-08        1.218e-10      
                   1.712e-09         25.0000        1               
  8.500e-09        1.580e-09        1.150e-08        1.219e-10      
                   1.702e-09         25.0000        1               
  8.510e-09        1.570e-09        1.149e-08        1.219e-10      
                   1.692e-09         25.0000        1               
  8.520e-09        1.560e-09        1.148e-08        1.220e-10      
                   1.682e-09         25.0000        1               
  8.530e-09        1.550e-09        1.147e-08        1.220e-10      
                   1.672e-09         25.0000        1               
  8.540e-09        1.540e-09        1.146e-08        1.220e-10      
                   1.662e-09         25.0000        1               
  8.550e-09        1.530e-09        1.145e-08        1.220e-10      
                   1.652e-09         25.0000        1               
  8.560e-09        1.520e-09        1.144e-08        1.221e-10      
                   1.642e-09         25.0000        1               
  8.570e-09        1.510e-09        1.143e-08        1.221e-10      
                   1.632e-09         25.0000        1               
  8.580e-09        1.500e-09        1.142e-08        1.221e-10      
                   1.622e-09         25.0000        1               
  8.590e-09        1.490e-09        1.141e-08        1.221e-10      
                   1.612e-09         25.0000        1               
  8.600e-09        1.480e-09        1.140e-08        1.221e-10      
                   1.602e-09         25.0000        1               
  8.610e-09        1.470e-09        1.139e-08        1.221e-10      
                   1.592e-09         25.0000        1               
  8.620e-09        1.460e-09        1.138e-08        1.222e-10      
                   1.582e-09         25.0000        1               
  8.630e-09        1.450e-09        1.137e-08        1.222e-10      
                   1.572e-09         25.0000        1               
  8.640e-09        1.440e-09        1.136e-08        1.219e-10      
                   1.562e-09         25.0000        1               
  8.650e-09        1.430e-09        1.135e-08        1.219e-10      
                   1.552e-09         25.0000        1               
  8.660e-09        1.420e-09        1.134e-08        1.220e-10      
                   1.542e-09         25.0000        1               
  8.670e-09        1.410e-09        1.133e-08        1.220e-10      
                   1.532e-09         25.0000        1               
  8.680e-09        1.400e-09        1.132e-08        1.220e-10      
                   1.522e-09         25.0000        1               
  8.690e-09        1.390e-09        1.131e-08        1.220e-10      
                   1.512e-09         25.0000        1               
  8.700e-09        1.380e-09        1.130e-08        1.221e-10      
                   1.502e-09         25.0000        1               
  8.710e-09        1.370e-09        1.129e-08        1.221e-10      
                   1.492e-09         25.0000        1               
  8.720e-09        1.360e-09        1.128e-08        1.221e-10      
                   1.482e-09         25.0000        1               
  8.730e-09        1.350e-09        1.127e-08        1.221e-10      
                   1.472e-09         25.0000        1               
  8.740e-09        1.340e-09        1.126e-08        1.221e-10      
                   1.462e-09         25.0000        1               
  8.750e-09        1.330e-09        1.125e-08        1.221e-10      
                   1.452e-09         25.0000        1               
  8.760e-09        1.320e-09        1.124e-08        1.221e-10      
                   1.442e-09         25.0000        1               
  8.770e-09        1.310e-09        1.123e-08        1.221e-10      
                   1.432e-09         25.0000        1               
  8.780e-09        1.300e-09        1.122e-08        1.222e-10      
                   1.422e-09         25.0000        1               
  8.790e-09        1.290e-09        1.121e-08        1.231e-10      
                   1.413e-09         25.0000        1               
  8.800e-09        1.280e-09        1.120e-08        1.232e-10      
                   1.403e-09         25.0000        1               
  8.810e-09        1.270e-09        1.119e-08        1.231e-10      
                   1.393e-09         25.0000        1               
  8.820e-09        1.260e-09        1.118e-08        1.230e-10      
                   1.383e-09         25.0000        1               
  8.830e-09        1.250e-09        1.117e-08        1.231e-10      
                   1.373e-09         25.0000        1               
  8.840e-09        1.240e-09        1.116e-08        1.231e-10      
                   1.363e-09         25.0000        1               
  8.850e-09        1.230e-09        1.115e-08        1.230e-10      
                   1.353e-09         25.0000        1               
  8.860e-09        1.220e-09        1.114e-08        1.229e-10      
                   1.343e-09         25.0000        1               
  8.870e-09        1.210e-09        1.113e-08        1.229e-10      
                   1.333e-09         25.0000        1               
  8.880e-09        1.200e-09        1.112e-08        1.233e-10      
                   1.323e-09         25.0000        1               
  8.890e-09        1.190e-09        1.111e-08        1.236e-10      
                   1.314e-09         25.0000        1               
  8.900e-09        1.180e-09        1.110e-08        1.236e-10      
                   1.304e-09         25.0000        1               
  8.910e-09        1.170e-09        1.109e-08        1.237e-10      
                   1.294e-09         25.0000        1               
  8.920e-09        1.160e-09        1.108e-08        1.237e-10      
                   1.284e-09         25.0000        1               
  8.930e-09        1.150e-09        1.107e-08        1.237e-10      
                   1.274e-09         25.0000        1               
  8.940e-09        1.140e-09        1.106e-08        1.238e-10      
                   1.264e-09         25.0000        1               
  8.950e-09        1.130e-09        1.105e-08        1.238e-10      
                   1.254e-09         25.0000        1               
  8.960e-09        1.120e-09        1.104e-08        1.238e-10      
                   1.244e-09         25.0000        1               
  8.970e-09        1.110e-09        1.103e-08        1.245e-10      
                   1.234e-09         25.0000        1               
  8.980e-09        1.100e-09        1.102e-08        1.245e-10      
                   1.225e-09         25.0000        1               
  8.990e-09        1.090e-09        1.101e-08        1.245e-10      
                   1.215e-09         25.0000        1               
  9.000e-09        1.080e-09        1.100e-08        1.245e-10      
                   1.205e-09         25.0000        1               
  9.010e-09        1.070e-09        1.099e-08        1.245e-10      
                   1.195e-09         25.0000        1               
  9.020e-09        1.060e-09        1.098e-08        1.245e-10      
                   1.185e-09         25.0000        1               
  9.030e-09        1.050e-09        1.097e-08        1.245e-10      
                   1.174e-09         25.0000        1               
  9.040e-09        1.040e-09        1.096e-08        1.240e-10      
                   1.164e-09         25.0000        1               
  9.050e-09        1.030e-09        1.095e-08        1.241e-10      
                   1.154e-09         25.0000        1               
  9.060e-09        1.020e-09        1.094e-08        1.241e-10      
                   1.144e-09         25.0000        1               
  9.070e-09        1.010e-09        1.093e-08        1.240e-10      
                   1.134e-09         25.0000        1               
  9.080e-09        1.000e-09        1.092e-08        1.237e-10      
                   1.124e-09         25.0000        1               
  9.090e-09        9.900e-10        1.091e-08        1.235e-10      
                   1.114e-09         25.0000        1               
  9.100e-09        9.800e-10        1.090e-08        1.233e-10      
                   1.103e-09         25.0000        1               
  9.110e-09        9.700e-10        1.089e-08        1.233e-10      
                   1.093e-09         25.0000        1               
  9.120e-09        9.600e-10        1.088e-08        1.233e-10      
                   1.083e-09         25.0000        1               
  9.130e-09        9.500e-10        1.087e-08        1.233e-10      
                   1.073e-09         25.0000        1               
  9.140e-09        9.400e-10        1.086e-08        1.233e-10      
                   1.063e-09         25.0000        1               
  9.150e-09        9.300e-10        1.085e-08        1.233e-10      
                   1.053e-09         25.0000        1               
  9.160e-09        9.200e-10        1.084e-08        1.233e-10      
                   1.043e-09         25.0000        1               
  9.170e-09        9.100e-10        1.083e-08        1.233e-10      
                   1.033e-09         25.0000        1               
  9.180e-09        9.000e-10        1.082e-08        1.233e-10      
                   1.023e-09         25.0000        1               
  9.190e-09        8.900e-10        1.081e-08        1.233e-10      
                   1.013e-09         25.0000        1               
  9.200e-09        8.800e-10        1.080e-08        1.233e-10      
                   1.003e-09         25.0000        1               
  9.210e-09        8.700e-10        1.079e-08        1.233e-10      
                   9.933e-10         25.0000        1               
  9.220e-09        8.600e-10        1.078e-08        1.245e-10      
                   9.845e-10         25.0000        1               
  9.230e-09        8.500e-10        1.077e-08        1.244e-10      
                   9.744e-10         25.0000        1               
  9.240e-09        8.400e-10        1.076e-08        1.243e-10      
                   9.643e-10         25.0000        1               
  9.250e-09        8.300e-10        1.075e-08        1.242e-10      
                   9.542e-10         25.0000        1               
  9.260e-09        8.200e-10        1.074e-08        1.240e-10      
                   9.440e-10         25.0000        1               
  9.270e-09        8.100e-10        1.073e-08        1.240e-10      
                   9.340e-10         25.0000        1               
  9.280e-09        8.000e-10        1.072e-08        1.239e-10      
                   9.239e-10         25.0000        1               
  9.290e-09        7.900e-10        1.071e-08        1.238e-10      
                   9.138e-10         25.0000        1               
  9.300e-09        7.800e-10        1.070e-08        1.238e-10      
                   9.038e-10         25.0000        1               
  9.310e-09        7.700e-10        1.069e-08        1.239e-10      
                   8.939e-10         25.0000        1               
  9.320e-09        7.600e-10        1.068e-08        1.236e-10      
                   8.836e-10         25.0000        1               
  9.330e-09        7.500e-10        1.067e-08        1.237e-10      
                   8.737e-10         25.0000        1               
  9.340e-09        7.400e-10        1.066e-08        1.239e-10      
                   8.639e-10         25.0000        1               
  9.350e-09        7.300e-10        1.065e-08        1.236e-10      
                   8.536e-10         25.0000        1               
  9.360e-09        7.200e-10        1.064e-08        1.237e-10      
                   8.437e-10         25.0000        1               
  9.370e-09        7.100e-10        1.063e-08        1.237e-10      
                   8.337e-10         25.0000        1               
  9.380e-09        7.000e-10        1.062e-08        1.238e-10      
                   8.238e-10         25.0000        1               
  9.390e-09        6.900e-10        1.061e-08        1.241e-10      
                   8.141e-10         25.0000        1               
  9.400e-09        6.800e-10        1.060e-08        1.242e-10      
                   8.042e-10         25.0000        1               
  9.410e-09        6.700e-10        1.059e-08        1.242e-10      
                   7.942e-10         25.0000        1               
  9.420e-09        6.600e-10        1.058e-08        1.244e-10      
                   7.844e-10         25.0000        1               
  9.430e-09        6.500e-10        1.057e-08        1.245e-10      
                   7.745e-10         25.0000        1               
  9.440e-09        6.400e-10        1.056e-08        1.245e-10      
                   7.645e-10         25.0000        1               
  9.450e-09        6.300e-10        1.055e-08        1.245e-10      
                   7.545e-10         25.0000        1               
  9.460e-09        6.200e-10        1.054e-08        1.245e-10      
                   7.445e-10         25.0000        1               
  9.470e-09        6.100e-10        1.053e-08        1.245e-10      
                   7.345e-10         25.0000        1               
  9.480e-09        6.000e-10        1.052e-08        1.245e-10      
                   7.245e-10         25.0000        1               
  9.490e-09        5.900e-10        1.051e-08        1.245e-10      
                   7.145e-10         25.0000        1               
  9.500e-09        5.800e-10        1.050e-08        1.245e-10      
                   7.045e-10         25.0000        1               
  9.510e-09        5.700e-10        1.049e-08        1.245e-10      
                   6.945e-10         25.0000        1               
  9.520e-09        5.600e-10        1.048e-08        1.244e-10      
                   6.844e-10         25.0000        1               
  9.530e-09        5.500e-10        1.047e-08        1.240e-10      
                   6.740e-10         25.0000        1               
  9.540e-09        5.400e-10        1.046e-08        1.238e-10      
                   6.638e-10         25.0000        1               
  9.550e-09        5.300e-10        1.045e-08        1.236e-10      
                   6.536e-10         25.0000        1               
  9.560e-09        5.200e-10        1.044e-08        1.234e-10      
                   6.434e-10         25.0000        1               
  9.570e-09        5.100e-10        1.043e-08        1.233e-10      
                   6.333e-10         25.0000        1               
  9.580e-09        5.000e-10        1.042e-08        1.234e-10      
                   6.234e-10         25.0000        1               
  9.590e-09        4.900e-10        1.041e-08        1.238e-10      
                   6.138e-10         25.0000        1               
  9.600e-09        4.800e-10        1.040e-08        1.235e-10      
                   6.035e-10         25.0000        1               
  9.610e-09        4.700e-10        1.039e-08        1.238e-10      
                   5.938e-10         25.0000        1               
  9.620e-09        4.600e-10        1.038e-08        1.244e-10      
                   5.844e-10         25.0000        1               
  9.630e-09        4.500e-10        1.037e-08        1.238e-10      
                   5.738e-10         25.0000        1               
  9.640e-09        4.400e-10        1.036e-08        1.236e-10      
                   5.636e-10         25.0000        1               
  9.650e-09        4.300e-10        1.035e-08        1.235e-10      
                   5.535e-10         25.0000        1               
  9.660e-09        4.200e-10        1.034e-08        1.233e-10      
                   5.433e-10         25.0000        1               
  9.670e-09        4.100e-10        1.033e-08        1.233e-10      
                   5.333e-10         25.0000        1               
  9.680e-09        4.000e-10        1.032e-08        1.237e-10      
                   5.237e-10         25.0000        1               
  9.690e-09        3.900e-10        1.031e-08        1.238e-10      
                   5.138e-10         25.0000        1               
  9.700e-09        3.800e-10        1.030e-08        1.239e-10      
                   5.039e-10         25.0000        1               
  9.710e-09        3.700e-10        1.029e-08        1.235e-10      
                   4.935e-10         25.0000        1               
  9.720e-09        3.600e-10        1.028e-08        1.236e-10      
                   4.836e-10         25.0000        1               
  9.730e-09        3.500e-10        1.027e-08        1.233e-10      
                   4.733e-10         25.0000        1               
  9.740e-09        3.400e-10        1.026e-08        1.234e-10      
                   4.634e-10         25.0000        1               
  9.750e-09        3.300e-10        1.025e-08        1.237e-10      
                   4.537e-10         25.0000        1               
  9.760e-09        3.200e-10        1.024e-08        1.238e-10      
                   4.438e-10         25.0000        1               
  9.770e-09        3.100e-10        1.023e-08        1.239e-10      
                   4.339e-10         25.0000        1               
  9.780e-09        3.000e-10        1.022e-08        1.238e-10      
                   4.238e-10         25.0000        1               
  9.790e-09        2.900e-10        1.021e-08        1.238e-10      
                   4.138e-10         25.0000        1               
  9.800e-09        2.800e-10        1.020e-08        1.233e-10      
                   4.033e-10         25.0000        1               
  9.810e-09        2.700e-10        1.019e-08        1.236e-10      
                   3.936e-10         25.0000        1               
  9.820e-09        2.600e-10        1.018e-08        1.236e-10      
                   3.836e-10         25.0000        1               
  9.830e-09        2.500e-10        1.017e-08        1.235e-10      
                   3.735e-10         25.0000        1               
  9.840e-09        2.400e-10        1.016e-08        1.242e-10      
                   3.642e-10         25.0000        1               
  9.850e-09        2.300e-10        1.015e-08        1.236e-10      
                   3.536e-10         25.0000        1               
  9.860e-09        2.200e-10        1.014e-08        1.235e-10      
                   3.435e-10         25.0000        1               
  9.870e-09        2.100e-10        1.013e-08        1.245e-10      
                   3.345e-10         25.0000        1               
  9.880e-09        2.000e-10        1.012e-08        1.236e-10      
                   3.236e-10         25.0000        1               
  9.890e-09        1.900e-10        1.011e-08        1.238e-10      
                   3.138e-10         25.0000        1               
  9.900e-09        1.800e-10        1.010e-08        1.234e-10      
                   3.034e-10         25.0000        1               
  9.910e-09        1.700e-10        1.009e-08        1.243e-10      
                   2.943e-10         25.0000        1               
  9.920e-09        1.600e-10        1.008e-08        1.234e-10      
                   2.834e-10         25.0000        1               
  9.930e-09        1.500e-10        1.007e-08        1.244e-10      
                   2.744e-10         25.0000        1               
  9.940e-09        1.400e-10        1.006e-08        1.235e-10      
                   2.635e-10         25.0000        1               
  9.950e-09        1.300e-10        1.005e-08        1.239e-10      
                   2.539e-10         25.0000        1               
  9.960e-09        1.200e-10        1.004e-08        1.246e-10      
                   2.446e-10         25.0000        1               
  9.970e-09        1.100e-10        1.003e-08        1.238e-10      
                   2.338e-10         25.0000        1               
  9.980e-09        1.000e-10        1.002e-08        1.240e-10      
                   2.240e-10         25.0000        1               
  9.990e-09        9.000e-11        1.001e-08        1.246e-10      
                   2.146e-10         25.0000        1               
  1.000e-08        8.000e-11        1.000e-08        1.253e-10      
                   2.053e-10         25.0000        1               
  1.001e-08        7.000e-11        9.990e-09        1.267e-10      
                   1.967e-10         25.0000        1               
  1.002e-08        6.000e-11        9.980e-09        1.279e-10      
                   1.879e-10         25.0000        1               
  1.003e-08        5.000e-11        9.970e-09        1.314e-10      
                   1.814e-10         25.0000        1               
  1.004e-08        4.000e-11        9.960e-09        1.366e-10      
                   1.766e-10         25.0000        1               
  1.005e-08        3.000e-11        9.950e-09        1.433e-10      
                   1.733e-10         25.0000        1               
  1.006e-08        2.000e-11        9.940e-09        1.516e-10      
                   1.716e-10         25.0000        1               
  1.007e-08        1.000e-11        9.930e-09        1.598e-10      
                   1.698e-10         25.0000        1               
  1.008e-08        1.654e-24        9.920e-09        1.674e-10      
                   1.674e-10         25.0000        1               
  1.009e-08       -1.000e-11        9.910e-09        1.800e-10      
                   1.700e-10         25.0000        1               
  1.010e-08       -2.000e-11        9.900e-09        1.907e-10      
                   1.707e-10         25.0000        1               
  1.011e-08       -3.000e-11        9.890e-09        2.015e-10      
                   1.715e-10         25.0000        1               
  1.012e-08       -4.000e-11        9.880e-09        2.124e-10      
                   1.724e-10         25.0000        1               
  1.013e-08       -5.000e-11        9.870e-09        2.233e-10      
                   1.733e-10         25.0000        1               
  1.014e-08       -6.000e-11        9.860e-09        2.340e-10      
                   1.740e-10         25.0000        1               
  1.015e-08       -7.000e-11        9.850e-09        2.439e-10      
                   1.739e-10         25.0000        1               
  1.016e-08       -8.000e-11        9.840e-09        2.543e-10      
                   1.743e-10         25.0000        1               
  1.017e-08       -9.000e-11        9.830e-09        2.647e-10      
                   1.747e-10         25.0000        1               
  1.018e-08       -1.000e-10        9.820e-09        2.751e-10      
                   1.751e-10         25.0000        1               
  1.019e-08       -1.100e-10        9.810e-09        2.846e-10      
                   1.746e-10         25.0000        1               
  1.020e-08       -1.200e-10        9.800e-09        2.948e-10      
                   1.748e-10         25.0000        1               
  1.021e-08       -1.300e-10        9.790e-09        3.052e-10      
                   1.752e-10         25.0000        1               
  1.022e-08       -1.400e-10        9.780e-09        3.149e-10      
                   1.749e-10         25.0000        1               
  1.023e-08       -1.500e-10        9.770e-09        3.250e-10      
                   1.750e-10         25.0000        1               
  1.024e-08       -1.600e-10        9.760e-09        3.350e-10      
                   1.750e-10         25.0000        1               
  1.025e-08       -1.700e-10        9.750e-09        3.449e-10      
                   1.749e-10         25.0000        1               
  1.026e-08       -1.800e-10        9.740e-09        3.545e-10      
                   1.745e-10         25.0000        1               
  1.027e-08       -1.900e-10        9.730e-09        3.653e-10      
                   1.753e-10         25.0000        1               
  1.028e-08       -2.000e-10        9.720e-09        3.750e-10      
                   1.750e-10         25.0000        1               
  1.029e-08       -2.100e-10        9.710e-09        3.851e-10      
                   1.751e-10         25.0000        1               
  1.030e-08       -2.200e-10        9.700e-09        3.949e-10      
                   1.749e-10         25.0000        1               
  1.031e-08       -2.300e-10        9.690e-09        4.048e-10      
                   1.748e-10         25.0000        1               
  1.032e-08       -2.400e-10        9.680e-09        4.150e-10      
                   1.750e-10         25.0000        1               
  1.033e-08       -2.500e-10        9.670e-09        4.248e-10      
                   1.748e-10         25.0000        1               
  1.034e-08       -2.600e-10        9.660e-09        4.350e-10      
                   1.750e-10         25.0000        1               
  1.035e-08       -2.700e-10        9.650e-09        4.448e-10      
                   1.748e-10         25.0000        1               
  1.036e-08       -2.800e-10        9.640e-09        4.543e-10      
                   1.743e-10         25.0000        1               
  1.037e-08       -2.900e-10        9.630e-09        4.638e-10      
                   1.738e-10         25.0000        1               
  1.038e-08       -3.000e-10        9.620e-09        4.736e-10      
                   1.736e-10         25.0000        1               
  1.039e-08       -3.100e-10        9.610e-09        4.850e-10      
                   1.750e-10         25.0000        1               
  1.040e-08       -3.200e-10        9.600e-09        4.950e-10      
                   1.750e-10         25.0000        1               
  1.041e-08       -3.300e-10        9.590e-09        5.050e-10      
                   1.750e-10         25.0000        1               
  1.042e-08       -3.400e-10        9.580e-09        5.147e-10      
                   1.747e-10         25.0000        1               
  1.043e-08       -3.500e-10        9.570e-09        5.242e-10      
                   1.742e-10         25.0000        1               
  1.044e-08       -3.600e-10        9.560e-09        5.338e-10      
                   1.738e-10         25.0000        1               
  1.045e-08       -3.700e-10        9.550e-09        5.437e-10      
                   1.737e-10         25.0000        1               
  1.046e-08       -3.800e-10        9.540e-09        5.539e-10      
                   1.739e-10         25.0000        1               
  1.047e-08       -3.900e-10        9.530e-09        5.642e-10      
                   1.742e-10         25.0000        1               
  1.048e-08       -4.000e-10        9.520e-09        5.743e-10      
                   1.743e-10         25.0000        1               
  1.049e-08       -4.100e-10        9.510e-09        5.850e-10      
                   1.750e-10         25.0000        1               
  1.050e-08       -4.200e-10        9.500e-09        5.950e-10      
                   1.750e-10         25.0000        1               
  1.051e-08       -4.300e-10        9.490e-09        6.050e-10      
                   1.750e-10         25.0000        1               
  1.052e-08       -4.400e-10        9.480e-09        6.148e-10      
                   1.748e-10         25.0000        1               
  1.053e-08       -4.500e-10        9.470e-09        6.243e-10      
                   1.743e-10         25.0000        1               
  1.054e-08       -4.600e-10        9.460e-09        6.338e-10      
                   1.738e-10         25.0000        1               
  1.055e-08       -4.700e-10        9.450e-09        6.436e-10      
                   1.736e-10         25.0000        1               
  1.056e-08       -4.800e-10        9.440e-09        6.539e-10      
                   1.739e-10         25.0000        1               
  1.057e-08       -4.900e-10        9.430e-09        6.641e-10      
                   1.741e-10         25.0000        1               
  1.058e-08       -5.000e-10        9.420e-09        6.743e-10      
                   1.743e-10         25.0000        1               
  1.059e-08       -5.100e-10        9.410e-09        6.844e-10      
                   1.744e-10         25.0000        1               
  1.060e-08       -5.200e-10        9.400e-09        6.945e-10      
                   1.745e-10         25.0000        1               
  1.061e-08       -5.300e-10        9.390e-09        7.045e-10      
                   1.745e-10         25.0000        1               
  1.062e-08       -5.400e-10        9.380e-09        7.145e-10      
                   1.745e-10         25.0000        1               
  1.063e-08       -5.500e-10        9.370e-09        7.246e-10      
                   1.746e-10         25.0000        1               
  1.064e-08       -5.600e-10        9.360e-09        7.346e-10      
                   1.746e-10         25.0000        1               
  1.065e-08       -5.700e-10        9.350e-09        7.447e-10      
                   1.747e-10         25.0000        1               
  1.066e-08       -5.800e-10        9.340e-09        7.547e-10      
                   1.747e-10         25.0000        1               
  1.067e-08       -5.900e-10        9.330e-09        7.648e-10      
                   1.748e-10         25.0000        1               
  1.068e-08       -6.000e-10        9.320e-09        7.748e-10      
                   1.748e-10         25.0000        1               
  1.069e-08       -6.100e-10        9.310e-09        7.849e-10      
                   1.749e-10         25.0000        1               
  1.070e-08       -6.200e-10        9.300e-09        7.950e-10      
                   1.750e-10         25.0000        1               
  1.071e-08       -6.300e-10        9.290e-09        8.049e-10      
                   1.749e-10         25.0000        1               
  1.072e-08       -6.400e-10        9.280e-09        8.151e-10      
                   1.751e-10         25.0000        1               
  1.073e-08       -6.500e-10        9.270e-09        8.243e-10      
                   1.743e-10         25.0000        1               
  1.074e-08       -6.600e-10        9.260e-09        8.337e-10      
                   1.737e-10         25.0000        1               
  1.075e-08       -6.700e-10        9.250e-09        8.438e-10      
                   1.738e-10         25.0000        1               
  1.076e-08       -6.800e-10        9.240e-09        8.540e-10      
                   1.740e-10         25.0000        1               
  1.077e-08       -6.900e-10        9.230e-09        8.642e-10      
[...]
                   1.750e-10         25.0000        1               
  1.857e-08       -8.490e-09        1.430e-09        8.665e-09      
                   1.750e-10         25.0000        1               
  1.858e-08       -8.500e-09        1.420e-09        8.675e-09      
                   1.750e-10         25.0000        1               
  1.859e-08       -8.510e-09        1.410e-09        8.685e-09      
                   1.750e-10         25.0000        1               
  1.860e-08       -8.520e-09        1.400e-09        8.695e-09      
                   1.750e-10         25.0000        1               
  1.861e-08       -8.530e-09        1.390e-09        8.705e-09      
                   1.750e-10         25.0000        1               
  1.862e-08       -8.540e-09        1.380e-09        8.715e-09      
                   1.750e-10         25.0000        1               
  1.863e-08       -8.550e-09        1.370e-09        8.725e-09      
                   1.750e-10         25.0000        1               
  1.864e-08       -8.560e-09        1.360e-09        8.735e-09      
                   1.750e-10         25.0000        1               
  1.865e-08       -8.570e-09        1.350e-09        8.745e-09      
                   1.750e-10         25.0000        1               
  1.866e-08       -8.580e-09        1.340e-09        8.755e-09      
                   1.750e-10         25.0000        1               
  1.867e-08       -8.590e-09        1.330e-09        8.765e-09      
                   1.749e-10         25.0000        1               
  1.868e-08       -8.600e-09        1.320e-09        8.775e-09      
                   1.749e-10         25.0000        1               
  1.869e-08       -8.610e-09        1.310e-09        8.785e-09      
                   1.749e-10         25.0000        1               
  1.870e-08       -8.620e-09        1.300e-09        8.795e-09      
                   1.749e-10         25.0000        1               
  1.871e-08       -8.630e-09        1.290e-09        8.805e-09      
                   1.749e-10         25.0000        1               
  1.872e-08       -8.640e-09        1.280e-09        8.815e-09      
                   1.748e-10         25.0000        1               
  1.873e-08       -8.650e-09        1.270e-09        8.825e-09      
                   1.748e-10         25.0000        1               
  1.874e-08       -8.660e-09        1.260e-09        8.835e-09      
                   1.748e-10         25.0000        1               
  1.875e-08       -8.670e-09        1.250e-09        8.845e-09      
                   1.748e-10         25.0000        1               
  1.876e-08       -8.680e-09        1.240e-09        8.855e-09      
                   1.747e-10         25.0000        1               
  1.877e-08       -8.690e-09        1.230e-09        8.865e-09      
                   1.747e-10         25.0000        1               
  1.878e-08       -8.700e-09        1.220e-09        8.875e-09      
                   1.747e-10         25.0000        1               
  1.879e-08       -8.710e-09        1.210e-09        8.885e-09      
                   1.747e-10         25.0000        1               
  1.880e-08       -8.720e-09        1.200e-09        8.895e-09      
                   1.746e-10         25.0000        1               
  1.881e-08       -8.730e-09        1.190e-09        8.905e-09      
                   1.746e-10         25.0000        1               
  1.882e-08       -8.740e-09        1.180e-09        8.915e-09      
                   1.746e-10         25.0000        1               
  1.883e-08       -8.750e-09        1.170e-09        8.925e-09      
                   1.745e-10         25.0000        1               
  1.884e-08       -8.760e-09        1.160e-09        8.934e-09      
                   1.745e-10         25.0000        1               
  1.885e-08       -8.770e-09        1.150e-09        8.944e-09      
                   1.744e-10         25.0000        1               
  1.886e-08       -8.780e-09        1.140e-09        8.954e-09      
                   1.744e-10         25.0000        1               
  1.887e-08       -8.790e-09        1.130e-09        8.964e-09      
                   1.744e-10         25.0000        1               
  1.888e-08       -8.800e-09        1.120e-09        8.974e-09      
                   1.743e-10         25.0000        1               
  1.889e-08       -8.810e-09        1.110e-09        8.984e-09      
                   1.742e-10         25.0000        1               
  1.890e-08       -8.820e-09        1.100e-09        8.994e-09      
                   1.742e-10         25.0000        1               
  1.891e-08       -8.830e-09        1.090e-09        9.004e-09      
                   1.741e-10         25.0000        1               
  1.892e-08       -8.840e-09        1.080e-09        9.014e-09      
                   1.741e-10         25.0000        1               
  1.893e-08       -8.850e-09        1.070e-09        9.024e-09      
                   1.740e-10         25.0000        1               
  1.894e-08       -8.860e-09        1.060e-09        9.034e-09      
                   1.739e-10         25.0000        1               
  1.895e-08       -8.870e-09        1.050e-09        9.044e-09      
                   1.739e-10         25.0000        1               
  1.896e-08       -8.880e-09        1.040e-09        9.054e-09      
                   1.738e-10         25.0000        1               
  1.897e-08       -8.890e-09        1.030e-09        9.064e-09      
                   1.737e-10         25.0000        1               
  1.898e-08       -8.900e-09        1.020e-09        9.074e-09      
                   1.737e-10         25.0000        1               
  1.899e-08       -8.910e-09        1.010e-09        9.084e-09      
                   1.736e-10         25.0000        1               
  1.900e-08       -8.920e-09        1.000e-09        9.094e-09      
                   1.736e-10         25.0000        1               
  1.901e-08       -8.930e-09        9.900e-10        9.104e-09      
                   1.735e-10         25.0000        1               
  1.902e-08       -8.940e-09        9.800e-10        9.113e-09      
                   1.735e-10         25.0000        1               
  1.903e-08       -8.950e-09        9.700e-10        9.123e-09      
                   1.734e-10         25.0000        1               
  1.904e-08       -8.960e-09        9.600e-10        9.133e-09      
                   1.734e-10         25.0000        1               
  1.905e-08       -8.970e-09        9.500e-10        9.143e-09      
                   1.734e-10         25.0000        1               
  1.906e-08       -8.980e-09        9.400e-10        9.153e-09      
                   1.734e-10         25.0000        1               
  1.907e-08       -8.990e-09        9.300e-10        9.163e-09      
                   1.734e-10         25.0000        1               
  1.908e-08       -9.000e-09        9.200e-10        9.174e-09      
                   1.735e-10         25.0000        1               
  1.909e-08       -9.010e-09        9.100e-10        9.183e-09      
                   1.735e-10         25.0000        1               
  1.910e-08       -9.020e-09        9.000e-10        9.193e-09      
                   1.734e-10         25.0000        1               
  1.911e-08       -9.030e-09        8.900e-10        9.203e-09      
                   1.733e-10         25.0000        1               
  1.912e-08       -9.040e-09        8.800e-10        9.213e-09      
                   1.732e-10         25.0000        1               
  1.913e-08       -9.050e-09        8.700e-10        9.223e-09      
                   1.731e-10         25.0000        1               
  1.914e-08       -9.060e-09        8.600e-10        9.233e-09      
                   1.730e-10         25.0000        1               
  1.915e-08       -9.070e-09        8.500e-10        9.243e-09      
                   1.730e-10         25.0000        1               
  1.916e-08       -9.080e-09        8.400e-10        9.253e-09      
                   1.730e-10         25.0000        1               
  1.917e-08       -9.090e-09        8.300e-10        9.263e-09      
                   1.731e-10         25.0000        1               
  1.918e-08       -9.100e-09        8.200e-10        9.273e-09      
                   1.729e-10         25.0000        1               
  1.919e-08       -9.110e-09        8.100e-10        9.283e-09      
                   1.729e-10         25.0000        1               
  1.920e-08       -9.120e-09        8.000e-10        9.293e-09      
                   1.728e-10         25.0000        1               
  1.921e-08       -9.130e-09        7.900e-10        9.303e-09      
                   1.728e-10         25.0000        1               
  1.922e-08       -9.140e-09        7.800e-10        9.313e-09      
                   1.728e-10         25.0000        1               
  1.923e-08       -9.150e-09        7.700e-10        9.323e-09      
                   1.728e-10         25.0000        1               
  1.924e-08       -9.160e-09        7.600e-10        9.333e-09      
                   1.728e-10         25.0000        1               
  1.925e-08       -9.170e-09        7.500e-10        9.343e-09      
                   1.728e-10         25.0000        1               
  1.926e-08       -9.180e-09        7.400e-10        9.353e-09      
                   1.728e-10         25.0000        1               
  1.927e-08       -9.190e-09        7.300e-10        9.363e-09      
                   1.728e-10         25.0000        1               
  1.928e-08       -9.200e-09        7.200e-10        9.373e-09      
                   1.728e-10         25.0000        1               
  1.929e-08       -9.210e-09        7.100e-10        9.383e-09      
                   1.728e-10         25.0000        1               
  1.930e-08       -9.220e-09        7.000e-10        9.393e-09      
                   1.728e-10         25.0000        1               
  1.931e-08       -9.230e-09        6.900e-10        9.403e-09      
                   1.728e-10         25.0000        1               
  1.932e-08       -9.240e-09        6.800e-10        9.413e-09      
                   1.728e-10         25.0000        1               
  1.933e-08       -9.250e-09        6.700e-10        9.423e-09      
                   1.728e-10         25.0000        1               
  1.934e-08       -9.260e-09        6.600e-10        9.433e-09      
                   1.728e-10         25.0000        1               
  1.935e-08       -9.270e-09        6.500e-10        9.443e-09      
                   1.728e-10         25.0000        1               
  1.936e-08       -9.280e-09        6.400e-10        9.453e-09      
                   1.728e-10         25.0000        1               
  1.937e-08       -9.290e-09        6.300e-10        9.463e-09      
                   1.728e-10         25.0000        1               
  1.938e-08       -9.300e-09        6.200e-10        9.473e-09      
                   1.728e-10         25.0000        1               
  1.939e-08       -9.310e-09        6.100e-10        9.483e-09      
                   1.728e-10         25.0000        1               
  1.940e-08       -9.320e-09        6.000e-10        9.493e-09      
                   1.728e-10         25.0000        1               
  1.941e-08       -9.330e-09        5.900e-10        9.503e-09      
                   1.728e-10         25.0000        1               
  1.942e-08       -9.340e-09        5.800e-10        9.513e-09      
                   1.728e-10         25.0000        1               
  1.943e-08       -9.350e-09        5.700e-10        9.523e-09      
                   1.728e-10         25.0000        1               
  1.944e-08       -9.360e-09        5.600e-10        9.533e-09      
                   1.728e-10         25.0000        1               
  1.945e-08       -9.370e-09        5.500e-10        9.543e-09      
                   1.728e-10         25.0000        1               
  1.946e-08       -9.380e-09        5.400e-10        9.553e-09      
                   1.728e-10         25.0000        1               
  1.947e-08       -9.390e-09        5.300e-10        9.563e-09      
                   1.728e-10         25.0000        1               
  1.948e-08       -9.400e-09        5.200e-10        9.573e-09      
                   1.727e-10         25.0000        1               
  1.949e-08       -9.410e-09        5.100e-10        9.583e-09      
                   1.727e-10         25.0000        1               
  1.950e-08       -9.420e-09        5.000e-10        9.593e-09      
                   1.727e-10         25.0000        1               
  1.951e-08       -9.430e-09        4.900e-10        9.603e-09      
                   1.727e-10         25.0000        1               
  1.952e-08       -9.440e-09        4.800e-10        9.613e-09      
                   1.727e-10         25.0000        1               
  1.953e-08       -9.450e-09        4.700e-10        9.623e-09      
                   1.727e-10         25.0000        1               
  1.954e-08       -9.460e-09        4.600e-10        9.633e-09      
                   1.726e-10         25.0000        1               
  1.955e-08       -9.470e-09        4.500e-10        9.643e-09      
                   1.726e-10         25.0000        1               
  1.956e-08       -9.480e-09        4.400e-10        9.653e-09      
                   1.726e-10         25.0000        1               
  1.957e-08       -9.490e-09        4.300e-10        9.663e-09      
                   1.726e-10         25.0000        1               
  1.958e-08       -9.500e-09        4.200e-10        9.673e-09      
                   1.725e-10         25.0000        1               
  1.959e-08       -9.510e-09        4.100e-10        9.683e-09      
                   1.725e-10         25.0000        1               
  1.960e-08       -9.520e-09        4.000e-10        9.692e-09      
                   1.725e-10         25.0000        1               
  1.961e-08       -9.530e-09        3.900e-10        9.702e-09      
                   1.725e-10         25.0000        1               
  1.962e-08       -9.540e-09        3.800e-10        9.712e-09      
                   1.725e-10         25.0000        1               
  1.963e-08       -9.550e-09        3.700e-10        9.722e-09      
                   1.724e-10         25.0000        1               
  1.964e-08       -9.560e-09        3.600e-10        9.732e-09      
                   1.724e-10         25.0000        1               
  1.965e-08       -9.570e-09        3.500e-10        9.742e-09      
                   1.724e-10         25.0000        1               
  1.966e-08       -9.580e-09        3.400e-10        9.752e-09      
                   1.723e-10         25.0000        1               
  1.967e-08       -9.590e-09        3.300e-10        9.762e-09      
                   1.723e-10         25.0000        1               
  1.968e-08       -9.600e-09        3.200e-10        9.772e-09      
                   1.723e-10         25.0000        1               
  1.969e-08       -9.610e-09        3.100e-10        9.782e-09      
                   1.722e-10         25.0000        1               
  1.970e-08       -9.620e-09        3.000e-10        9.792e-09      
                   1.722e-10         25.0000        1               
  1.971e-08       -9.630e-09        2.900e-10        9.802e-09      
                   1.722e-10         25.0000        1               
  1.972e-08       -9.640e-09        2.800e-10        9.812e-09      
                   1.721e-10         25.0000        1               
  1.973e-08       -9.650e-09        2.700e-10        9.822e-09      
                   1.721e-10         25.0000        1               
  1.974e-08       -9.660e-09        2.600e-10        9.832e-09      
                   1.721e-10         25.0000        1               
  1.975e-08       -9.670e-09        2.500e-10        9.842e-09      
                   1.721e-10         25.0000        1               
  1.976e-08       -9.680e-09        2.400e-10        9.852e-09      
                   1.717e-10         25.0000        1               
  1.977e-08       -9.690e-09        2.300e-10        9.862e-09      
                   1.717e-10         25.0000        1               
  1.978e-08       -9.700e-09        2.200e-10        9.872e-09      
                   1.718e-10         25.0000        1               
  1.979e-08       -9.710e-09        2.100e-10        9.882e-09      
                   1.717e-10         25.0000        1               
  1.980e-08       -9.720e-09        2.000e-10        9.891e-09      
                   1.712e-10         25.0000        1               
  1.981e-08       -9.730e-09        1.900e-10        9.901e-09      
                   1.708e-10         25.0000        1               
  1.982e-08       -9.740e-09        1.800e-10        9.911e-09      
                   1.711e-10         25.0000        1               
  1.983e-08       -9.750e-09        1.700e-10        9.924e-09      
                   1.742e-10         25.0000        1               
  1.984e-08       -9.760e-09        1.600e-10          failed       
                     failed          25.0000        1               
  1.985e-08       -9.770e-09        1.500e-10          failed       
                     failed          25.0000        1               
  1.986e-08       -9.780e-09        1.400e-10          failed       
                     failed          25.0000        1               
  1.987e-08       -9.790e-09        1.300e-10          failed       
                     failed          25.0000        1               
  1.988e-08       -9.800e-09        1.200e-10          failed       
                     failed          25.0000        1               
  1.989e-08       -9.810e-09        1.100e-10          failed       
                     failed          25.0000        1               
  1.990e-08       -9.820e-09        1.000e-10          failed       
                     failed          25.0000        1               
  1.991e-08       -9.830e-09        9.000e-11          failed       
                     failed          25.0000        1               
  1.992e-08       -9.840e-09        8.000e-11          failed       
                     failed          25.0000        1               
  1.993e-08       -9.850e-09        7.000e-11          failed       
                     failed          25.0000        1               
  1.994e-08       -9.860e-09        6.000e-11          failed       
                     failed          25.0000        1               
  1.995e-08       -9.870e-09        5.000e-11          failed       
                     failed          25.0000        1               
  1.996e-08       -9.880e-09        4.000e-11          failed       
                     failed          25.0000        1               
  1.997e-08       -9.890e-09        3.000e-11          failed       
                     failed          25.0000        1               
  1.998e-08       -9.900e-09        2.000e-11          failed       
                     failed          25.0000        1               
  1.999e-08       -9.910e-09        1.000e-11          failed       
                     failed          25.0000        1               
  2.000e-08       -9.920e-09          0.               failed       
                     failed          25.0000        1               
