$DATA1 SOURCE='HSPICE' VERSION='O-2018.09 linux64' PARAM_COUNT=1
.TITLE '**testbench**'
 size             rising_delay     falling_delay    delay_avg       
                  power            pdp              temper          
                  alter#          
  2.500e-07        3.610e-09        2.887e-09        3.248e-09      
                  -9.011e-06        2.927e-14         25.0000       
                 1               
  2.600e-07        3.485e-09        2.675e-09        3.080e-09      
                  -8.968e-06        2.762e-14         25.0000       
                 1               
  2.700e-07        3.368e-09        2.589e-09        2.978e-09      
                  -8.945e-06        2.664e-14         25.0000       
                 1               
  2.800e-07        3.228e-09        2.513e-09        2.871e-09      
                  -8.934e-06        2.565e-14         25.0000       
                 1               
  2.900e-07        3.152e-09        2.441e-09        2.796e-09      
                  -8.968e-06        2.508e-14         25.0000       
                 1               
  3.000e-07        3.054e-09        2.370e-09        2.712e-09      
                  -8.955e-06        2.428e-14         25.0000       
                 1               
  3.100e-07        2.948e-09        2.311e-09        2.629e-09      
                  -8.962e-06        2.356e-14         25.0000       
                 1               
  3.200e-07        2.883e-09        2.252e-09        2.568e-09      
                  -8.971e-06        2.303e-14         25.0000       
                 1               
  3.300e-07        2.789e-09        2.194e-09        2.492e-09      
                  -8.985e-06        2.239e-14         25.0000       
                 1               
  3.400e-07        2.710e-09        2.146e-09        2.428e-09      
                  -8.982e-06        2.181e-14         25.0000       
                 1               
  3.500e-07        2.662e-09        2.091e-09        2.376e-09      
                  -8.987e-06        2.135e-14         25.0000       
                 1               
  3.600e-07        2.584e-09        2.052e-09        2.318e-09      
                  -8.986e-06        2.083e-14         25.0000       
                 1               
  3.700e-07        2.519e-09        2.008e-09        2.263e-09      
                  -8.963e-06        2.029e-14         25.0000       
                 1               
  3.800e-07        2.446e-09        1.962e-09        2.204e-09      
                  -8.992e-06        1.982e-14         25.0000       
                 1               
  3.900e-07        2.385e-09        1.923e-09        2.154e-09      
                  -9.021e-06        1.943e-14         25.0000       
                 1               
  4.000e-07        2.353e-09        1.961e-09        2.157e-09      
                  -9.082e-06        1.959e-14         25.0000       
                 1               
  4.100e-07        2.301e-09        1.931e-09        2.116e-09      
                  -9.085e-06        1.923e-14         25.0000       
                 1               
  4.200e-07        2.256e-09        1.893e-09        2.075e-09      
                  -9.047e-06        1.877e-14         25.0000       
                 1               
  4.300e-07        2.198e-09        1.874e-09        2.036e-09      
                  -9.067e-06        1.846e-14         25.0000       
                 1               
  4.400e-07        2.156e-09        1.750e-09        1.953e-09      
                  -9.058e-06        1.769e-14         25.0000       
                 1               
  4.500e-07        2.121e-09        1.798e-09        1.959e-09      
                  -9.158e-06        1.794e-14         25.0000       
                 1               
  4.600e-07        2.054e-09        1.768e-09        1.911e-09      
                  -9.065e-06        1.732e-14         25.0000       
                 1               
  4.700e-07        2.028e-09        1.664e-09        1.846e-09      
                  -9.107e-06        1.681e-14         25.0000       
                 1               
  4.800e-07        1.999e-09        1.638e-09        1.818e-09      
                  -9.095e-06        1.654e-14         25.0000       
                 1               
  4.900e-07        1.954e-09        1.714e-09        1.834e-09      
                  -9.155e-06        1.679e-14         25.0000       
                 1               
  5.000e-07        1.926e-09        1.588e-09        1.757e-09      
                  -9.151e-06        1.608e-14         25.0000       
                 1               
  5.100e-07        1.889e-09        1.664e-09        1.777e-09      
                  -9.129e-06        1.622e-14         25.0000       
                 1               
  5.200e-07        1.844e-09        1.640e-09        1.742e-09      
                  -9.084e-06        1.582e-14         25.0000       
                 1               
  5.300e-07        1.827e-09        1.614e-09        1.720e-09      
                  -9.117e-06        1.569e-14         25.0000       
                 1               
  5.400e-07        1.786e-09        1.495e-09        1.640e-09      
                  -9.086e-06        1.490e-14         25.0000       
                 1               
  5.500e-07        1.766e-09        1.570e-09        1.668e-09      
                  -9.102e-06        1.518e-14         25.0000       
                 1               
  5.600e-07        1.734e-09        1.455e-09        1.594e-09      
                  -9.070e-06        1.446e-14         25.0000       
                 1               
  5.700e-07        1.692e-09        1.529e-09        1.610e-09      
                  -9.089e-06        1.464e-14         25.0000       
                 1               
  5.800e-07        1.677e-09        1.416e-09        1.546e-09      
                  -9.053e-06        1.400e-14         25.0000       
                 1               
  5.900e-07        1.648e-09        1.396e-09        1.522e-09      
                  -9.109e-06        1.386e-14         25.0000       
                 1               
  6.000e-07        1.624e-09        1.373e-09        1.498e-09      
                  -9.059e-06        1.357e-14         25.0000       
                 1               
  6.100e-07        1.600e-09        1.364e-09        1.482e-09      
                  -9.109e-06        1.350e-14         25.0000       
                 1               
  6.200e-07        1.568e-09        1.335e-09        1.452e-09      
                  -9.129e-06        1.325e-14         25.0000       
                 1               
  6.300e-07        1.550e-09        1.328e-09        1.439e-09      
                  -9.113e-06        1.311e-14         25.0000       
                 1               
  6.400e-07        1.528e-09        1.312e-09        1.420e-09      
                  -9.053e-06        1.286e-14         25.0000       
                 1               
  6.500e-07        1.512e-09        1.386e-09        1.449e-09      
                  -9.108e-06        1.320e-14         25.0000       
                 1               
  6.600e-07        1.494e-09        1.282e-09        1.388e-09      
                  -9.100e-06        1.263e-14         25.0000       
                 1               
  6.700e-07        1.463e-09        1.272e-09        1.367e-09      
                  -9.050e-06        1.237e-14         25.0000       
                 1               
  6.800e-07        1.442e-09        1.254e-09        1.348e-09      
                  -9.079e-06        1.224e-14         25.0000       
                 1               
  6.900e-07        1.425e-09        1.318e-09        1.372e-09      
                  -9.131e-06        1.252e-14         25.0000       
                 1               
  7.000e-07        1.408e-09        1.232e-09        1.320e-09      
                  -9.143e-06        1.207e-14         25.0000       
                 1               
  7.100e-07        1.390e-09        1.298e-09        1.344e-09      
                  -9.109e-06        1.224e-14         25.0000       
                 1               
  7.200e-07        1.373e-09        1.204e-09        1.288e-09      
                  -9.074e-06        1.169e-14         25.0000       
                 1               
  7.300e-07        1.350e-09        1.193e-09        1.272e-09      
                  -9.093e-06        1.156e-14         25.0000       
                 1               
  7.400e-07        1.329e-09        1.178e-09        1.253e-09      
                  -9.090e-06        1.139e-14         25.0000       
                 1               
  7.500e-07        1.317e-09        1.164e-09        1.241e-09      
                  -9.096e-06        1.129e-14         25.0000       
                 1               
  7.600e-07        1.302e-09        1.154e-09        1.228e-09      
                  -9.074e-06        1.114e-14         25.0000       
                 1               
  7.700e-07        1.284e-09        1.148e-09        1.216e-09      
                  -9.052e-06        1.101e-14         25.0000       
                 1               
  7.800e-07        1.268e-09        1.130e-09        1.199e-09      
                  -9.077e-06        1.088e-14         25.0000       
                 1               
  7.900e-07        1.253e-09        1.125e-09        1.189e-09      
                  -9.124e-06        1.085e-14         25.0000       
                 1               
  8.000e-07        1.242e-09        1.117e-09        1.180e-09      
                  -9.095e-06        1.073e-14         25.0000       
                 1               
  8.100e-07        1.229e-09        1.106e-09        1.168e-09      
                  -9.060e-06        1.058e-14         25.0000       
                 1               
  8.200e-07        1.221e-09        1.097e-09        1.159e-09      
                  -9.108e-06        1.056e-14         25.0000       
                 1               
  8.300e-07        1.203e-09        1.087e-09        1.145e-09      
                  -9.114e-06        1.043e-14         25.0000       
                 1               
  8.400e-07        1.189e-09        1.077e-09        1.133e-09      
                  -9.064e-06        1.027e-14         25.0000       
                 1               
  8.500e-07        1.179e-09        1.067e-09        1.123e-09      
                  -9.074e-06        1.019e-14         25.0000       
                 1               
  8.600e-07        1.168e-09        1.135e-09        1.152e-09      
                  -9.104e-06        1.048e-14         25.0000       
                 1               
  8.700e-07        1.151e-09        1.049e-09        1.100e-09      
                  -9.077e-06        9.988e-15         25.0000       
                 1               
  8.800e-07        1.143e-09        1.042e-09        1.092e-09      
                  -9.073e-06        9.912e-15         25.0000       
                 1               
  8.900e-07        1.130e-09        1.031e-09        1.081e-09      
                  -9.095e-06        9.829e-15         25.0000       
                 1               
  9.000e-07        1.119e-09        1.023e-09        1.071e-09      
                  -9.108e-06        9.752e-15         25.0000       
                 1               
  9.100e-07        1.107e-09        1.014e-09        1.061e-09      
                  -9.117e-06        9.669e-15         25.0000       
                 1               
  9.200e-07        1.096e-09        1.007e-09        1.052e-09      
                  -9.126e-06        9.596e-15         25.0000       
                 1               
  9.300e-07        1.086e-09        9.988e-10        1.042e-09      
                  -9.103e-06        9.489e-15         25.0000       
                 1               
  9.400e-07        1.076e-09        9.939e-10        1.035e-09      
                  -9.084e-06        9.401e-15         25.0000       
                 1               
  9.500e-07        1.065e-09        9.832e-10        1.024e-09      
                  -9.084e-06        9.305e-15         25.0000       
                 1               
  9.600e-07        1.055e-09        9.761e-10        1.016e-09      
                  -9.092e-06        9.233e-15         25.0000       
                 1               
  9.700e-07        1.044e-09        9.702e-10        1.007e-09      
                  -9.094e-06        9.157e-15         25.0000       
                 1               
  9.800e-07        1.030e-09        9.633e-10        9.964e-10      
                  -9.110e-06        9.077e-15         25.0000       
                 1               
  9.900e-07        1.025e-09        9.570e-10        9.910e-10      
                  -9.105e-06        9.023e-15         25.0000       
                 1               
  1.000e-06        1.016e-09        9.504e-10        9.831e-10      
                  -9.145e-06        8.991e-15         25.0000       
                 1               
  1.010e-06        1.000e-09        1.029e-09        1.015e-09      
                  -9.144e-06        9.278e-15         25.0000       
                 1               
  1.020e-06        9.984e-10        9.364e-10        9.674e-10      
                  -9.151e-06        8.853e-15         25.0000       
                 1               
  1.030e-06        9.894e-10        9.326e-10        9.610e-10      
                  -9.126e-06        8.770e-15         25.0000       
                 1               
  1.040e-06        9.793e-10        9.253e-10        9.523e-10      
                  -9.140e-06        8.705e-15         25.0000       
                 1               
  1.050e-06        9.709e-10        9.950e-10        9.829e-10      
                  -9.217e-06        9.059e-15         25.0000       
                 1               
  1.060e-06        9.567e-10        9.068e-10        9.318e-10      
                  -9.176e-06        8.550e-15         25.0000       
                 1               
  1.070e-06        9.538e-10        9.094e-10        9.316e-10      
                  -9.177e-06        8.549e-15         25.0000       
                 1               
  1.080e-06        9.444e-10        9.726e-10        9.585e-10      
                  -9.188e-06        8.807e-15         25.0000       
                 1               
  1.090e-06        9.374e-10        8.972e-10        9.173e-10      
                  -9.144e-06        8.388e-15         25.0000       
                 1               
  1.100e-06        9.293e-10        9.671e-10        9.482e-10      
                  -9.191e-06        8.715e-15         25.0000       
                 1               
  1.110e-06        9.212e-10        9.582e-10        9.397e-10      
                  -9.167e-06        8.614e-15         25.0000       
                 1               
  1.120e-06        9.117e-10        8.796e-10        8.956e-10      
                  -9.201e-06        8.241e-15         25.0000       
                 1               
  1.130e-06        9.071e-10        8.767e-10        8.919e-10      
                  -9.146e-06        8.157e-15         25.0000       
                 1               
  1.140e-06        8.967e-10        9.443e-10        9.205e-10      
                  -9.230e-06        8.496e-15         25.0000       
                 1               
  1.150e-06        8.946e-10        8.621e-10        8.784e-10      
                  -9.188e-06        8.071e-15         25.0000       
                 1               
  1.160e-06        8.873e-10        8.605e-10        8.739e-10      
                  -9.130e-06        7.978e-15         25.0000       
                 1               
  1.170e-06        8.785e-10        9.271e-10        9.028e-10      
                  -9.190e-06        8.297e-15         25.0000       
                 1               
  1.180e-06        8.686e-10        8.405e-10        8.546e-10      
                  -9.160e-06        7.828e-15         25.0000       
                 1               
  1.190e-06        8.644e-10        9.419e-10        9.031e-10      
                  -9.241e-06        8.346e-15         25.0000       
                 1               
  1.200e-06        8.564e-10        8.364e-10        8.464e-10      
                  -9.199e-06        7.785e-15         25.0000       
                 1               
  1.210e-06        8.508e-10        9.058e-10        8.783e-10      
                  -9.212e-06        8.091e-15         25.0000       
                 1               
  1.220e-06        8.436e-10        8.335e-10        8.386e-10      
                  -9.221e-06        7.733e-15         25.0000       
                 1               
  1.230e-06        8.393e-10        9.052e-10        8.722e-10      
                  -9.181e-06        8.008e-15         25.0000       
                 1               
  1.240e-06        8.315e-10        9.012e-10        8.663e-10      
                  -9.217e-06        7.985e-15         25.0000       
                 1               
  1.250e-06        8.282e-10        8.191e-10        8.237e-10      
                  -9.178e-06        7.560e-15         25.0000       
                 1               
  1.260e-06        8.204e-10        8.163e-10        8.183e-10      
                  -9.166e-06        7.500e-15         25.0000       
                 1               
  1.270e-06        8.159e-10        8.111e-10        8.135e-10      
                  -9.184e-06        7.471e-15         25.0000       
                 1               
  1.280e-06        8.093e-10        7.994e-10        8.043e-10      
                  -9.117e-06        7.333e-15         25.0000       
                 1               
  1.290e-06        8.045e-10        8.747e-10        8.396e-10      
                  -9.263e-06        7.777e-15         25.0000       
                 1               
  1.300e-06        7.990e-10        8.003e-10        7.996e-10      
                  -9.127e-06        7.298e-15         25.0000       
                 1               
  1.310e-06        7.932e-10        7.965e-10        7.949e-10      
                  -9.232e-06        7.338e-15         25.0000       
                 1               
  1.320e-06        7.871e-10        8.658e-10        8.265e-10      
                  -9.275e-06        7.666e-15         25.0000       
                 1               
  1.330e-06        7.824e-10        7.879e-10        7.852e-10      
                  -9.286e-06        7.291e-15         25.0000       
                 1               
  1.340e-06        7.769e-10        7.837e-10        7.803e-10      
                  -9.236e-06        7.207e-15         25.0000       
                 1               
  1.350e-06        7.728e-10        8.715e-10        8.222e-10      
                  -9.300e-06        7.646e-15         25.0000       
                 1               
  1.360e-06        7.671e-10        8.524e-10        8.097e-10      
                  -9.236e-06        7.478e-15         25.0000       
                 1               
  1.370e-06        7.622e-10        8.641e-10        8.132e-10      
                  -9.197e-06        7.479e-15         25.0000       
                 1               
  1.380e-06        7.568e-10        7.683e-10        7.625e-10      
                  -9.180e-06        7.000e-15         25.0000       
                 1               
  1.390e-06        7.521e-10        7.636e-10        7.578e-10      
                  -9.174e-06        6.952e-15         25.0000       
                 1               
  1.400e-06        7.470e-10        7.602e-10        7.536e-10      
                  -9.166e-06        6.907e-15         25.0000       
                 1               
  1.410e-06        7.422e-10        7.569e-10        7.495e-10      
                  -9.191e-06        6.889e-15         25.0000       
                 1               
  1.420e-06        7.381e-10        7.560e-10        7.471e-10      
                  -9.216e-06        6.885e-15         25.0000       
                 1               
  1.430e-06        7.334e-10        7.533e-10        7.434e-10      
                  -9.240e-06        6.869e-15         25.0000       
                 1               
  1.440e-06        7.281e-10        8.250e-10        7.765e-10      
                  -9.255e-06        7.187e-15         25.0000       
                 1               
  1.450e-06        7.246e-10        8.171e-10        7.709e-10      
                  -9.210e-06        7.100e-15         25.0000       
                 1               
  1.460e-06        7.198e-10        7.411e-10        7.304e-10      
                  -9.205e-06        6.724e-15         25.0000       
                 1               
  1.470e-06        7.153e-10        8.077e-10        7.615e-10      
                  -9.235e-06        7.033e-15         25.0000       
                 1               
  1.480e-06        7.096e-10        7.377e-10        7.237e-10      
                  -9.231e-06        6.680e-15         25.0000       
                 1               
  1.490e-06        7.069e-10        8.011e-10        7.540e-10      
                  -9.218e-06        6.950e-15         25.0000       
                 1               
  1.500e-06        7.028e-10        7.306e-10        7.167e-10      
                  -9.199e-06        6.593e-15         25.0000       
                 1               
  1.510e-06        6.980e-10        7.294e-10        7.137e-10      
                  -9.195e-06        6.563e-15         25.0000       
                 1               
  1.520e-06        6.952e-10        7.243e-10        7.097e-10      
                  -9.205e-06        6.533e-15         25.0000       
                 1               
  1.530e-06        6.915e-10        7.908e-10        7.412e-10      
                  -9.273e-06        6.873e-15         25.0000       
                 1               
  1.540e-06        6.879e-10        7.209e-10        7.044e-10      
                  -9.150e-06        6.445e-15         25.0000       
                 1               
  1.550e-06        6.848e-10        7.175e-10        7.011e-10      
                  -9.224e-06        6.467e-15         25.0000       
                 1               
  1.560e-06        6.796e-10        7.129e-10        6.963e-10      
                  -9.242e-06        6.435e-15         25.0000       
                 1               
  1.570e-06        6.762e-10        7.820e-10        7.291e-10      
                  -9.323e-06        6.798e-15         25.0000       
                 1               
  1.580e-06        6.716e-10        7.798e-10        7.257e-10      
                  -9.375e-06        6.803e-15         25.0000       
                 1               
  1.590e-06        6.677e-10        7.044e-10        6.861e-10      
                  -9.305e-06        6.384e-15         25.0000       
                 1               
  1.600e-06        6.656e-10        7.762e-10        7.209e-10      
                  -9.304e-06        6.707e-15         25.0000       
                 1               
  1.610e-06        6.615e-10        7.712e-10        7.163e-10      
                  -9.298e-06        6.660e-15         25.0000       
                 1               
  1.620e-06        6.588e-10        7.703e-10        7.146e-10      
                  -9.288e-06        6.636e-15         25.0000       
                 1               
  1.630e-06        6.567e-10        6.949e-10        6.758e-10      
                  -9.257e-06        6.256e-15         25.0000       
                 1               
  1.640e-06        6.520e-10        7.651e-10        7.085e-10      
                  -9.341e-06        6.618e-15         25.0000       
                 1               
  1.650e-06        6.482e-10        7.614e-10        7.048e-10      
                  -9.357e-06        6.595e-15         25.0000       
                 1               
  1.660e-06        6.443e-10        7.586e-10        7.014e-10      
                  -9.334e-06        6.547e-15         25.0000       
                 1               
  1.670e-06        6.433e-10        7.743e-10        7.088e-10      
                  -9.357e-06        6.632e-15         25.0000       
                 1               
  1.680e-06        6.387e-10        7.551e-10        6.969e-10      
                  -9.296e-06        6.479e-15         25.0000       
                 1               
  1.690e-06        6.353e-10        7.518e-10        6.935e-10      
                  -9.346e-06        6.482e-15         25.0000       
                 1               
  1.700e-06        6.306e-10        6.808e-10        6.557e-10      
                  -9.293e-06        6.093e-15         25.0000       
                 1               
  1.710e-06        6.278e-10        6.751e-10        6.514e-10      
                  -9.323e-06        6.073e-15         25.0000       
                 1               
  1.720e-06        6.268e-10        7.428e-10        6.848e-10      
                  -9.308e-06        6.374e-15         25.0000       
                 1               
  1.730e-06        6.226e-10        6.726e-10        6.476e-10      
                  -9.269e-06        6.003e-15         25.0000       
                 1               
  1.740e-06        6.208e-10        7.367e-10        6.788e-10      
                  -9.312e-06        6.321e-15         25.0000       
                 1               
  1.750e-06        6.154e-10        6.700e-10        6.427e-10      
                  -9.273e-06        5.960e-15         25.0000       
                 1               
  1.760e-06        6.122e-10        6.643e-10        6.382e-10      
                  -9.233e-06        5.893e-15         25.0000       
                 1               
  1.770e-06        6.115e-10        6.622e-10        6.369e-10      
                  -9.227e-06        5.876e-15         25.0000       
                 1               
  1.780e-06        6.088e-10        7.295e-10        6.691e-10      
                  -9.263e-06        6.198e-15         25.0000       
                 1               
  1.790e-06        6.046e-10        7.302e-10        6.674e-10      
                  -9.314e-06        6.216e-15         25.0000       
                 1               
  1.800e-06        6.031e-10        6.532e-10        6.282e-10      
                  -9.319e-06        5.854e-15         25.0000       
                 1               
  1.810e-06        6.005e-10        7.248e-10        6.626e-10      
                  -9.359e-06        6.202e-15         25.0000       
                 1               
  1.820e-06        5.959e-10        6.523e-10        6.241e-10      
                  -9.317e-06        5.815e-15         25.0000       
                 1               
  1.830e-06        5.931e-10        6.517e-10        6.224e-10      
                  -9.280e-06        5.776e-15         25.0000       
                 1               
  1.840e-06        5.912e-10        6.518e-10        6.215e-10      
                  -9.280e-06        5.767e-15         25.0000       
                 1               
  1.850e-06        5.881e-10        6.472e-10        6.177e-10      
                  -9.360e-06        5.781e-15         25.0000       
                 1               
  1.860e-06        5.858e-10        6.482e-10        6.170e-10      
                  -9.321e-06        5.751e-15         25.0000       
                 1               
  1.870e-06        5.832e-10        7.107e-10        6.469e-10      
                  -9.314e-06        6.025e-15         25.0000       
                 1               
  1.880e-06        5.803e-10        6.433e-10        6.118e-10      
                  -9.293e-06        5.685e-15         25.0000       
                 1               
  1.890e-06        5.778e-10        6.415e-10        6.096e-10      
                  -9.306e-06        5.673e-15         25.0000       
                 1               
  1.900e-06        5.753e-10        6.396e-10        6.075e-10      
                  -9.305e-06        5.652e-15         25.0000       
                 1               
  1.910e-06        5.736e-10        6.363e-10        6.049e-10      
                  -9.318e-06        5.637e-15         25.0000       
                 1               
  1.920e-06        5.703e-10        6.364e-10        6.033e-10      
                  -9.272e-06        5.594e-15         25.0000       
                 1               
  1.930e-06        5.676e-10        6.361e-10        6.019e-10      
                  -9.296e-06        5.595e-15         25.0000       
                 1               
  1.940e-06        5.659e-10        6.338e-10        5.998e-10      
                  -9.270e-06        5.561e-15         25.0000       
                 1               
  1.950e-06        5.628e-10        6.305e-10        5.966e-10      
                  -9.282e-06        5.538e-15         25.0000       
                 1               
  1.960e-06        5.599e-10        6.305e-10        5.952e-10      
                  -9.307e-06        5.540e-15         25.0000       
                 1               
  1.970e-06        5.584e-10        6.289e-10        5.936e-10      
                  -9.287e-06        5.513e-15         25.0000       
                 1               
  1.980e-06        5.568e-10        6.271e-10        5.920e-10      
                  -9.276e-06        5.491e-15         25.0000       
                 1               
  1.990e-06        5.544e-10        6.250e-10        5.897e-10      
                  -9.277e-06        5.471e-15         25.0000       
                 1               
  2.000e-06        5.507e-10        6.236e-10        5.872e-10      
                  -9.304e-06        5.463e-15         25.0000       
                 1               
  2.010e-06        5.493e-10        6.881e-10        6.187e-10      
                  -9.358e-06        5.790e-15         25.0000       
                 1               
  2.020e-06        5.478e-10        6.202e-10        5.840e-10      
                  -9.291e-06        5.426e-15         25.0000       
                 1               
  2.030e-06        5.502e-10        6.194e-10        5.848e-10      
                  -9.296e-06        5.436e-15         25.0000       
                 1               
  2.040e-06        5.434e-10        6.174e-10        5.804e-10      
                  -9.287e-06        5.390e-15         25.0000       
                 1               
  2.050e-06        5.403e-10        6.159e-10        5.781e-10      
                  -9.294e-06        5.373e-15         25.0000       
                 1               
  2.060e-06        5.392e-10        6.139e-10        5.765e-10      
                  -9.305e-06        5.364e-15         25.0000       
                 1               
  2.070e-06        5.362e-10        6.125e-10        5.744e-10      
                  -9.305e-06        5.344e-15         25.0000       
                 1               
  2.080e-06        5.341e-10        6.111e-10        5.726e-10      
                  -9.311e-06        5.332e-15         25.0000       
                 1               
  2.090e-06        5.323e-10        6.106e-10        5.715e-10      
                  -9.346e-06        5.341e-15         25.0000       
                 1               
  2.100e-06        5.304e-10        6.086e-10        5.695e-10      
                  -9.315e-06        5.305e-15         25.0000       
                 1               
  2.110e-06        5.276e-10        6.077e-10        5.676e-10      
                  -9.337e-06        5.300e-15         25.0000       
                 1               
  2.120e-06        5.266e-10        6.871e-10        6.069e-10      
                  -9.464e-06        5.744e-15         25.0000       
                 1               
  2.130e-06        5.242e-10        6.853e-10        6.048e-10      
                  -9.468e-06        5.726e-15         25.0000       
                 1               
  2.140e-06        5.226e-10        6.837e-10        6.032e-10      
                  -9.470e-06        5.712e-15         25.0000       
                 1               
  2.150e-06        5.211e-10        6.822e-10        6.017e-10      
                  -9.521e-06        5.728e-15         25.0000       
                 1               
  2.160e-06        5.185e-10        6.804e-10        5.995e-10      
                  -9.502e-06        5.696e-15         25.0000       
                 1               
  2.170e-06        5.163e-10        5.991e-10        5.577e-10      
                  -9.501e-06        5.299e-15         25.0000       
                 1               
  2.180e-06        5.134e-10        6.784e-10        5.959e-10      
                  -9.523e-06        5.675e-15         25.0000       
                 1               
  2.190e-06        5.136e-10        6.593e-10        5.865e-10      
                  -9.514e-06        5.580e-15         25.0000       
                 1               
  2.200e-06        5.109e-10        5.957e-10        5.533e-10      
                  -9.359e-06        5.178e-15         25.0000       
                 1               
  2.210e-06        5.100e-10        5.786e-10        5.443e-10      
                  -9.354e-06        5.092e-15         25.0000       
                 1               
  2.220e-06        5.069e-10        5.907e-10        5.488e-10      
                  -9.328e-06        5.119e-15         25.0000       
                 1               
  2.230e-06        5.056e-10        5.902e-10        5.479e-10      
                  -9.359e-06        5.128e-15         25.0000       
                 1               
  2.240e-06        5.046e-10        5.885e-10        5.465e-10      
                  -9.355e-06        5.113e-15         25.0000       
                 1               
  2.250e-06        5.028e-10        5.878e-10        5.453e-10      
                  -9.351e-06        5.099e-15         25.0000       
                 1               
  2.260e-06        4.989e-10        5.866e-10        5.427e-10      
                  -9.376e-06        5.089e-15         25.0000       
                 1               
  2.270e-06        4.976e-10        5.867e-10        5.422e-10      
                  -9.380e-06        5.085e-15         25.0000       
                 1               
  2.280e-06        4.934e-10        5.838e-10        5.386e-10      
                  -9.363e-06        5.043e-15         25.0000       
                 1               
  2.290e-06        4.939e-10        5.842e-10        5.391e-10      
                  -9.375e-06        5.054e-15         25.0000       
                 1               
  2.300e-06        4.900e-10        6.612e-10        5.756e-10      
                  -9.395e-06        5.408e-15         25.0000       
                 1               
  2.310e-06        4.920e-10        5.821e-10        5.370e-10      
                  -9.362e-06        5.028e-15         25.0000       
                 1               
  2.320e-06        4.908e-10        5.806e-10        5.357e-10      
                  -9.366e-06        5.017e-15         25.0000       
                 1               
  2.330e-06        4.893e-10        5.802e-10        5.348e-10      
                  -9.373e-06        5.012e-15         25.0000       
                 1               
  2.340e-06        4.873e-10        5.788e-10        5.331e-10      
                  -9.350e-06        4.984e-15         25.0000       
                 1               
  2.350e-06        4.866e-10        5.771e-10        5.318e-10      
                  -9.357e-06        4.976e-15         25.0000       
                 1               
  2.360e-06        4.851e-10        5.770e-10        5.311e-10      
                  -9.345e-06        4.963e-15         25.0000       
                 1               
  2.370e-06        4.823e-10        5.731e-10        5.277e-10      
                  -9.389e-06        4.955e-15         25.0000       
                 1               
  2.380e-06        4.814e-10        5.722e-10        5.268e-10      
                  -9.463e-06        4.985e-15         25.0000       
                 1               
  2.390e-06        4.796e-10        5.711e-10        5.253e-10      
                  -9.367e-06        4.921e-15         25.0000       
                 1               
  2.400e-06        4.776e-10        6.492e-10        5.634e-10      
                  -9.395e-06        5.293e-15         25.0000       
                 1               
  2.410e-06        4.754e-10        5.688e-10        5.221e-10      
                  -9.400e-06        4.908e-15         25.0000       
                 1               
  2.420e-06        4.750e-10        5.705e-10        5.227e-10      
                  -9.373e-06        4.899e-15         25.0000       
                 1               
  2.430e-06        4.747e-10        5.673e-10        5.210e-10      
                  -9.375e-06        4.884e-15         25.0000       
                 1               
  2.440e-06        4.725e-10        5.659e-10        5.192e-10      
                  -9.416e-06        4.889e-15         25.0000       
                 1               
  2.450e-06        4.716e-10        5.647e-10        5.181e-10      
                  -9.379e-06        4.860e-15         25.0000       
                 1               
  2.460e-06        4.703e-10        5.639e-10        5.171e-10      
                  -9.383e-06        4.852e-15         25.0000       
                 1               
  2.470e-06        4.688e-10        5.647e-10        5.167e-10      
                  -9.383e-06        4.848e-15         25.0000       
                 1               
  2.480e-06        4.674e-10        5.638e-10        5.156e-10      
                  -9.384e-06        4.838e-15         25.0000       
                 1               
  2.490e-06        4.657e-10        5.612e-10        5.134e-10      
                  -9.392e-06        4.822e-15         25.0000       
                 1               
  2.500e-06        4.646e-10        5.554e-10        5.100e-10      
                  -9.367e-06        4.777e-15         25.0000       
                 1               
  2.510e-06        4.633e-10        5.620e-10        5.127e-10      
                  -9.336e-06        4.786e-15         25.0000       
                 1               
  2.520e-06        4.609e-10        5.611e-10        5.110e-10      
                  -9.356e-06        4.781e-15         25.0000       
                 1               
  2.530e-06        4.611e-10        5.579e-10        5.095e-10      
                  -9.428e-06        4.804e-15         25.0000       
                 1               
  2.540e-06        4.585e-10        6.332e-10        5.458e-10      
                  -9.460e-06        5.164e-15         25.0000       
                 1               
  2.550e-06        4.582e-10        6.321e-10        5.451e-10      
                  -9.463e-06        5.158e-15         25.0000       
                 1               
  2.560e-06        4.563e-10        5.545e-10        5.054e-10      
                  -9.503e-06        4.803e-15         25.0000       
                 1               
  2.570e-06        4.549e-10        6.303e-10        5.426e-10      
                  -9.603e-06        5.211e-15         25.0000       
                 1               
  2.580e-06        4.535e-10        6.294e-10        5.414e-10      
                  -9.564e-06        5.178e-15         25.0000       
                 1               
  2.590e-06        4.500e-10        5.547e-10        5.024e-10      
                  -9.533e-06        4.789e-15         25.0000       
                 1               
  2.600e-06        4.508e-10        6.275e-10        5.391e-10      
                  -9.611e-06        5.182e-15         25.0000       
                 1               
  2.610e-06        4.494e-10        6.264e-10        5.379e-10      
                  -9.612e-06        5.170e-15         25.0000       
                 1               
  2.620e-06        4.481e-10        6.254e-10        5.367e-10      
                  -9.605e-06        5.155e-15         25.0000       
                 1               
  2.630e-06        4.468e-10        6.246e-10        5.357e-10      
                  -9.563e-06        5.123e-15         25.0000       
                 1               
  2.640e-06        4.458e-10        6.238e-10        5.348e-10      
                  -9.581e-06        5.124e-15         25.0000       
                 1               
  2.650e-06        4.451e-10        6.226e-10        5.338e-10      
                  -9.644e-06        5.149e-15         25.0000       
                 1               
  2.660e-06        4.427e-10        6.218e-10        5.322e-10      
                  -9.653e-06        5.138e-15         25.0000       
                 1               
  2.670e-06        4.428e-10        5.447e-10        4.937e-10      
                  -9.544e-06        4.712e-15         25.0000       
                 1               
  2.680e-06        4.411e-10        6.201e-10        5.306e-10      
                  -9.607e-06        5.098e-15         25.0000       
                 1               
  2.690e-06        4.352e-10        5.462e-10        4.907e-10      
                  -9.616e-06        4.718e-15         25.0000       
                 1               
  2.700e-06        4.389e-10        5.454e-10        4.922e-10      
                  -9.580e-06        4.715e-15         25.0000       
                 1               
  2.710e-06        4.386e-10        6.172e-10        5.279e-10      
                  -9.627e-06        5.082e-15         25.0000       
                 1               
  2.720e-06        4.296e-10        6.161e-10        5.228e-10      
                  -9.657e-06        5.049e-15         25.0000       
                 1               
  2.730e-06        4.358e-10        6.156e-10        5.257e-10      
                  -9.650e-06        5.073e-15         25.0000       
                 1               
  2.740e-06        4.342e-10        6.147e-10        5.244e-10      
                  -9.694e-06        5.084e-15         25.0000       
                 1               
  2.750e-06        4.323e-10        6.138e-10        5.231e-10      
                  -9.652e-06        5.049e-15         25.0000       
                 1               
  2.760e-06        4.250e-10        6.126e-10        5.188e-10      
                  -9.648e-06        5.006e-15         25.0000       
                 1               
  2.770e-06        4.315e-10        6.120e-10        5.217e-10      
                  -9.714e-06        5.068e-15         25.0000       
                 1               
  2.780e-06        4.307e-10        5.394e-10        4.850e-10      
                  -9.643e-06        4.677e-15         25.0000       
                 1               
  2.790e-06        4.291e-10        6.104e-10        5.197e-10      
                  -9.697e-06        5.040e-15         25.0000       
                 1               
  2.800e-06        4.281e-10        6.094e-10        5.188e-10      
                  -9.697e-06        5.030e-15         25.0000       
                 1               
  2.810e-06        4.261e-10        6.088e-10        5.174e-10      
                  -9.681e-06        5.009e-15         25.0000       
                 1               
  2.820e-06        4.249e-10        6.080e-10        5.165e-10      
                  -9.694e-06        5.006e-15         25.0000       
                 1               
  2.830e-06        4.240e-10        6.071e-10        5.156e-10      
                  -9.703e-06        5.003e-15         25.0000       
                 1               
  2.840e-06        4.230e-10        6.063e-10        5.147e-10      
                  -9.712e-06        4.998e-15         25.0000       
                 1               
  2.850e-06        4.231e-10        6.055e-10        5.143e-10      
                  -9.713e-06        4.995e-15         25.0000       
                 1               
  2.860e-06        4.210e-10        6.047e-10        5.128e-10      
                  -9.719e-06        4.984e-15         25.0000       
                 1               
  2.870e-06        4.208e-10        6.037e-10        5.122e-10      
                  -9.686e-06        4.962e-15         25.0000       
                 1               
  2.880e-06        4.181e-10        6.030e-10        5.106e-10      
                  -9.720e-06        4.963e-15         25.0000       
                 1               
  2.890e-06        4.169e-10        6.022e-10        5.096e-10      
                  -9.725e-06        4.956e-15         25.0000       
                 1               
  2.900e-06        4.160e-10        6.014e-10        5.087e-10      
                  -9.731e-06        4.950e-15         25.0000       
                 1               
  2.910e-06        4.153e-10        6.006e-10        5.080e-10      
                  -9.710e-06        4.932e-15         25.0000       
                 1               
  2.920e-06        4.142e-10        5.998e-10        5.070e-10      
                  -9.629e-06        4.882e-15         25.0000       
                 1               
  2.930e-06        4.149e-10        5.148e-10        4.649e-10      
                  -9.622e-06        4.473e-15         25.0000       
                 1               
  2.940e-06        4.125e-10        5.983e-10        5.054e-10      
                  -9.655e-06        4.880e-15         25.0000       
                 1               
  2.950e-06        4.114e-10        5.975e-10        5.044e-10      
                  -9.670e-06        4.878e-15         25.0000       
                 1               
  2.960e-06        4.103e-10        5.273e-10        4.688e-10      
                  -9.445e-06        4.428e-15         25.0000       
                 1               
  2.970e-06        4.101e-10        5.961e-10        5.031e-10      
                  -9.611e-06        4.835e-15         25.0000       
                 1               
  2.980e-06        4.085e-10        5.260e-10        4.673e-10      
                  -9.616e-06        4.494e-15         25.0000       
                 1               
  2.990e-06        4.083e-10        5.946e-10        5.014e-10      
                  -9.739e-06        4.883e-15         25.0000       
                 1               
  3.000e-06        4.066e-10        5.248e-10        4.657e-10      
                  -9.470e-06        4.410e-15         25.0000       
                 1               
  3.010e-06        4.060e-10        5.242e-10        4.651e-10      
                  -9.474e-06        4.406e-15         25.0000       
                 1               
  3.020e-06        4.051e-10        5.236e-10        4.644e-10      
                  -9.481e-06        4.403e-15         25.0000       
                 1               
  3.030e-06        4.052e-10        5.230e-10        4.641e-10      
                  -9.554e-06        4.434e-15         25.0000       
                 1               
  3.040e-06        4.038e-10        5.225e-10        4.631e-10      
                  -9.516e-06        4.407e-15         25.0000       
                 1               
  3.050e-06        4.025e-10        5.137e-10        4.581e-10      
                  -9.510e-06        4.357e-15         25.0000       
                 1               
  3.060e-06        4.020e-10        5.213e-10        4.617e-10      
                  -9.499e-06        4.385e-15         25.0000       
                 1               
  3.070e-06        4.013e-10        5.207e-10        4.610e-10      
                  -9.504e-06        4.382e-15         25.0000       
                 1               
  3.080e-06        4.010e-10        5.202e-10        4.606e-10      
                  -9.509e-06        4.380e-15         25.0000       
                 1               
  3.090e-06        3.998e-10        5.877e-10        4.938e-10      
                  -9.543e-06        4.712e-15         25.0000       
                 1               
  3.100e-06        3.984e-10        5.057e-10        4.521e-10      
                  -9.522e-06        4.305e-15         25.0000       
                 1               
  3.110e-06        3.972e-10        5.142e-10        4.557e-10      
                  -9.578e-06        4.365e-15         25.0000       
                 1               
  3.120e-06        3.973e-10        5.020e-10        4.496e-10      
                  -9.586e-06        4.310e-15         25.0000       
                 1               
  3.130e-06        3.970e-10        5.089e-10        4.530e-10      
                  -9.582e-06        4.340e-15         25.0000       
                 1               
  3.140e-06        3.948e-10        5.140e-10        4.544e-10      
                  -9.551e-06        4.340e-15         25.0000       
                 1               
  3.150e-06        3.945e-10        5.106e-10        4.526e-10      
                  -9.566e-06        4.329e-15         25.0000       
                 1               
  3.160e-06        3.951e-10        5.003e-10        4.477e-10      
                  -9.554e-06        4.277e-15         25.0000       
                 1               
  3.170e-06        3.928e-10        5.127e-10        4.527e-10      
                  -9.601e-06        4.346e-15         25.0000       
                 1               
  3.180e-06        3.922e-10        5.090e-10        4.506e-10      
                  -9.564e-06        4.310e-15         25.0000       
                 1               
  3.190e-06        3.892e-10        5.119e-10        4.505e-10      
                  -9.594e-06        4.323e-15         25.0000       
                 1               
  3.200e-06        3.889e-10        5.111e-10        4.500e-10      
                  -9.598e-06        4.319e-15         25.0000       
                 1               
  3.210e-06        3.898e-10        5.098e-10        4.498e-10      
                  -9.553e-06        4.297e-15         25.0000       
                 1               
  3.220e-06        3.887e-10        5.102e-10        4.494e-10      
                  -9.572e-06        4.302e-15         25.0000       
                 1               
  3.230e-06        3.879e-10        5.121e-10        4.500e-10      
                  -9.564e-06        4.304e-15         25.0000       
                 1               
  3.240e-06        3.857e-10        5.094e-10        4.475e-10      
                  -9.579e-06        4.287e-15         25.0000       
                 1               
  3.250e-06        3.868e-10        5.088e-10        4.478e-10      
                  -9.559e-06        4.280e-15         25.0000       
                 1               
  3.260e-06        3.857e-10        5.112e-10        4.485e-10      
                  -9.557e-06        4.286e-15         25.0000       
                 1               
  3.270e-06        3.849e-10        5.084e-10        4.467e-10      
                  -9.550e-06        4.265e-15         25.0000       
                 1               
  3.280e-06        3.842e-10        5.100e-10        4.471e-10      
                  -9.561e-06        4.275e-15         25.0000       
                 1               
  3.290e-06        3.787e-10        5.070e-10        4.428e-10      
                  -9.576e-06        4.241e-15         25.0000       
                 1               
  3.300e-06        3.827e-10        5.063e-10        4.445e-10      
                  -9.597e-06        4.266e-15         25.0000       
                 1               
  3.310e-06        3.821e-10        5.082e-10        4.452e-10      
                  -9.583e-06        4.266e-15         25.0000       
                 1               
  3.320e-06        3.824e-10        5.066e-10        4.445e-10      
                  -9.606e-06        4.270e-15         25.0000       
                 1               
  3.330e-06        3.809e-10        5.050e-10        4.429e-10      
                  -9.657e-06        4.277e-15         25.0000       
                 1               
  3.340e-06        3.802e-10        5.056e-10        4.429e-10      
                  -9.563e-06        4.236e-15         25.0000       
                 1               
  3.350e-06        3.794e-10        5.009e-10        4.401e-10      
                  -9.548e-06        4.203e-15         25.0000       
                 1               
  3.360e-06        3.787e-10        5.068e-10        4.427e-10      
                  -9.599e-06        4.250e-15         25.0000       
                 1               
  3.370e-06        3.731e-10        5.068e-10        4.399e-10      
                  -9.580e-06        4.215e-15         25.0000       
                 1               
  3.380e-06        3.724e-10        5.063e-10        4.394e-10      
                  -9.551e-06        4.196e-15         25.0000       
                 1               
  3.390e-06        3.769e-10        5.705e-10        4.737e-10      
                  -9.588e-06        4.542e-15         25.0000       
                 1               
  3.400e-06        3.741e-10        5.039e-10        4.390e-10      
                  -9.614e-06        4.220e-15         25.0000       
                 1               
  3.410e-06        3.746e-10        5.045e-10        4.396e-10      
                  -9.554e-06        4.199e-15         25.0000       
                 1               
  3.420e-06        3.740e-10        5.034e-10        4.387e-10      
                  -9.541e-06        4.186e-15         25.0000       
                 1               
  3.430e-06        3.737e-10        5.026e-10        4.382e-10      
                  -9.551e-06        4.185e-15         25.0000       
                 1               
  3.440e-06        3.730e-10        5.020e-10        4.375e-10      
                  -9.541e-06        4.174e-15         25.0000       
                 1               
  3.450e-06        3.717e-10        5.014e-10        4.366e-10      
                  -9.533e-06        4.162e-15         25.0000       
                 1               
  3.460e-06        3.712e-10        5.010e-10        4.361e-10      
                  -9.533e-06        4.157e-15         25.0000       
                 1               
  3.470e-06        3.731e-10        5.657e-10        4.694e-10      
                  -9.592e-06        4.502e-15         25.0000       
                 1               
  3.480e-06        3.697e-10        5.002e-10        4.350e-10      
                  -9.574e-06        4.164e-15         25.0000       
                 1               
  3.490e-06        3.691e-10        4.999e-10        4.345e-10      
                  -9.573e-06        4.159e-15         25.0000       
                 1               
  3.500e-06        3.684e-10        4.996e-10        4.340e-10      
                  -9.610e-06        4.171e-15         25.0000       
                 1               
  3.510e-06        3.690e-10        4.999e-10        4.344e-10      
                  -9.646e-06        4.190e-15         25.0000       
                 1               
  3.520e-06        3.671e-10        4.991e-10        4.331e-10      
                  -9.582e-06        4.150e-15         25.0000       
                 1               
  3.530e-06        3.665e-10        4.994e-10        4.330e-10      
                  -9.568e-06        4.143e-15         25.0000       
                 1               
  3.540e-06        3.667e-10        4.981e-10        4.324e-10      
                  -9.640e-06        4.168e-15         25.0000       
                 1               
  3.550e-06        3.653e-10        4.975e-10        4.314e-10      
                  -9.575e-06        4.130e-15         25.0000       
                 1               
  3.560e-06        3.647e-10        4.972e-10        4.310e-10      
                  -9.575e-06        4.126e-15         25.0000       
                 1               
  3.570e-06        3.641e-10        4.969e-10        4.305e-10      
                  -9.606e-06        4.136e-15         25.0000       
                 1               
  3.580e-06        3.641e-10        4.970e-10        4.306e-10      
                  -9.669e-06        4.163e-15         25.0000       
                 1               
  3.590e-06        3.628e-10        4.964e-10        4.296e-10      
                  -9.645e-06        4.143e-15         25.0000       
                 1               
  3.600e-06        3.623e-10        4.961e-10        4.292e-10      
                  -9.639e-06        4.137e-15         25.0000       
                 1               
  3.610e-06        3.618e-10        4.954e-10        4.286e-10      
                  -9.670e-06        4.145e-15         25.0000       
                 1               
  3.620e-06        3.590e-10        5.594e-10        4.592e-10      
                  -9.734e-06        4.470e-15         25.0000       
                 1               
  3.630e-06        3.607e-10        4.961e-10        4.284e-10      
                  -9.750e-06        4.177e-15         25.0000       
                 1               
  3.640e-06        3.576e-10        4.946e-10        4.261e-10      
                  -9.753e-06        4.156e-15         25.0000       
                 1               
  3.650e-06        3.597e-10        4.953e-10        4.275e-10      
                  -9.797e-06        4.188e-15         25.0000       
                 1               
  3.660e-06        3.615e-10        4.947e-10        4.281e-10      
                  -9.734e-06        4.167e-15         25.0000       
                 1               
  3.670e-06        3.603e-10        5.561e-10        4.582e-10      
                  -9.822e-06        4.501e-15         25.0000       
                 1               
  3.680e-06        3.582e-10        4.943e-10        4.262e-10      
                  -9.767e-06        4.163e-15         25.0000       
                 1               
  3.690e-06        3.575e-10        4.940e-10        4.258e-10      
                  -9.771e-06        4.160e-15         25.0000       
                 1               
  3.700e-06        3.582e-10        5.552e-10        4.567e-10      
                  -9.772e-06        4.463e-15         25.0000       
                 1               
  3.710e-06        3.567e-10        4.919e-10        4.243e-10      
                  -9.770e-06        4.145e-15         25.0000       
                 1               
  3.720e-06        3.576e-10        5.543e-10        4.560e-10      
                  -9.829e-06        4.482e-15         25.0000       
                 1               
  3.730e-06        3.553e-10        5.543e-10        4.548e-10      
                  -9.798e-06        4.456e-15         25.0000       
                 1               
  3.740e-06        3.536e-10        5.538e-10        4.537e-10      
                  -9.828e-06        4.459e-15         25.0000       
                 1               
  3.750e-06        3.549e-10        5.531e-10        4.540e-10      
                  -9.832e-06        4.464e-15         25.0000       
                 1               
  3.760e-06        3.539e-10        5.529e-10        4.534e-10      
                  -9.857e-06        4.469e-15         25.0000       
                 1               
  3.770e-06        3.537e-10        5.524e-10        4.530e-10      
                  -9.835e-06        4.456e-15         25.0000       
                 1               
  3.780e-06        3.523e-10        5.520e-10        4.522e-10      
                  -9.839e-06        4.449e-15         25.0000       
                 1               
  3.790e-06        3.540e-10        5.514e-10        4.527e-10      
                  -9.825e-06        4.448e-15         25.0000       
                 1               
  3.800e-06        3.532e-10        5.511e-10        4.521e-10      
                  -9.847e-06        4.452e-15         25.0000       
                 1               
  3.810e-06        3.531e-10        5.503e-10        4.517e-10      
                  -9.824e-06        4.437e-15         25.0000       
                 1               
  3.820e-06        3.518e-10        5.500e-10        4.509e-10      
                  -9.876e-06        4.453e-15         25.0000       
                 1               
  3.830e-06        3.489e-10        5.498e-10        4.493e-10      
                  -9.772e-06        4.391e-15         25.0000       
                 1               
  3.840e-06        3.513e-10        5.489e-10        4.501e-10      
                  -9.881e-06        4.448e-15         25.0000       
                 1               
  3.850e-06        3.508e-10        4.889e-10        4.198e-10      
                  -9.757e-06        4.096e-15         25.0000       
                 1               
  3.860e-06        3.477e-10        5.484e-10        4.480e-10      
                  -9.803e-06        4.392e-15         25.0000       
                 1               
  3.870e-06        3.475e-10        5.483e-10        4.479e-10      
                  -9.883e-06        4.427e-15         25.0000       
                 1               
  3.880e-06        3.487e-10        5.468e-10        4.477e-10      
                  -9.892e-06        4.429e-15         25.0000       
                 1               
  3.890e-06        3.475e-10        5.470e-10        4.472e-10      
                  -9.845e-06        4.403e-15         25.0000       
                 1               
  3.900e-06        3.480e-10        5.467e-10        4.473e-10      
                  -9.899e-06        4.428e-15         25.0000       
                 1               
  3.910e-06        3.476e-10        5.459e-10        4.467e-10      
                  -9.873e-06        4.411e-15         25.0000       
                 1               
  3.920e-06        3.474e-10        5.456e-10        4.465e-10      
                  -9.911e-06        4.425e-15         25.0000       
                 1               
  3.930e-06        3.462e-10        5.453e-10        4.458e-10      
                  -9.862e-06        4.396e-15         25.0000       
                 1               
  3.940e-06        3.456e-10        5.449e-10        4.452e-10      
                  -9.910e-06        4.412e-15         25.0000       
                 1               
  3.950e-06        3.434e-10        4.862e-10        4.148e-10      
                  -9.808e-06        4.068e-15         25.0000       
                 1               
  3.960e-06        3.438e-10        5.446e-10        4.442e-10      
                  -9.920e-06        4.407e-15         25.0000       
                 1               
  3.970e-06        3.434e-10        5.436e-10        4.435e-10      
                  -9.879e-06        4.382e-15         25.0000       
                 1               
  3.980e-06        3.395e-10        4.843e-10        4.119e-10      
                  -9.793e-06        4.034e-15         25.0000       
                 1               
  3.990e-06        3.413e-10        5.432e-10        4.423e-10      
                  -9.853e-06        4.358e-15         25.0000       
                 1               
  4.000e-06        3.407e-10        5.428e-10        4.417e-10      
                  -9.873e-06        4.361e-15         25.0000       
                 1               
  4.010e-06        3.407e-10        5.422e-10        4.414e-10      
                  -9.913e-06        4.376e-15         25.0000       
                 1               
  4.020e-06        3.400e-10        5.421e-10        4.411e-10      
                  -9.871e-06        4.354e-15         25.0000       
                 1               
  4.030e-06        3.411e-10        5.410e-10        4.410e-10      
                  -9.846e-06        4.343e-15         25.0000       
                 1               
  4.040e-06        3.393e-10        5.412e-10        4.403e-10      
                  -9.906e-06        4.361e-15         25.0000       
                 1               
  4.050e-06        3.400e-10        5.402e-10        4.401e-10      
                  -9.918e-06        4.365e-15         25.0000       
                 1               
  4.060e-06        3.381e-10        5.400e-10        4.391e-10      
                  -9.891e-06        4.343e-15         25.0000       
                 1               
  4.070e-06        3.391e-10        5.394e-10        4.393e-10      
                  -9.925e-06        4.359e-15         25.0000       
                 1               
  4.080e-06        3.382e-10        5.390e-10        4.386e-10      
                  -9.931e-06        4.356e-15         25.0000       
                 1               
  4.090e-06        3.379e-10        5.387e-10        4.383e-10      
                  -9.895e-06        4.337e-15         25.0000       
                 1               
  4.100e-06        3.373e-10        5.382e-10        4.377e-10      
                  -9.936e-06        4.349e-15         25.0000       
                 1               
  4.110e-06        3.368e-10        5.378e-10        4.373e-10      
                  -9.938e-06        4.346e-15         25.0000       
                 1               
  4.120e-06        3.364e-10        5.374e-10        4.369e-10      
                  -9.940e-06        4.343e-15         25.0000       
                 1               
  4.130e-06        3.359e-10        5.370e-10        4.365e-10      
                  -9.943e-06        4.340e-15         25.0000       
                 1               
  4.140e-06        3.349e-10        5.368e-10        4.358e-10      
                  -9.847e-06        4.292e-15         25.0000       
                 1               
  4.150e-06        3.344e-10        5.363e-10        4.353e-10      
                  -9.835e-06        4.281e-15         25.0000       
                 1               
  4.160e-06        3.351e-10        5.361e-10        4.356e-10      
                  -9.780e-06        4.260e-15         25.0000       
                 1               
  4.170e-06        3.344e-10        4.807e-10        4.076e-10      
                  -9.666e-06        3.940e-15         25.0000       
                 1               
  4.180e-06        3.333e-10        5.361e-10        4.347e-10      
                  -9.785e-06        4.254e-15         25.0000       
                 1               
  4.190e-06        3.328e-10        5.357e-10        4.343e-10      
                  -9.944e-06        4.318e-15         25.0000       
                 1               
  4.200e-06        3.334e-10        4.787e-10        4.061e-10      
                  -9.670e-06        3.927e-15         25.0000       
                 1               
  4.210e-06        3.329e-10        4.787e-10        4.058e-10      
                  -9.670e-06        3.924e-15         25.0000       
                 1               
  4.220e-06        3.325e-10        4.783e-10        4.054e-10      
                  -9.674e-06        3.922e-15         25.0000       
                 1               
  4.230e-06        3.316e-10        4.620e-10        3.968e-10      
                  -9.711e-06        3.854e-15         25.0000       
                 1               
  4.240e-06        3.317e-10        4.790e-10        4.053e-10      
                  -9.718e-06        3.939e-15         25.0000       
                 1               
  4.250e-06        3.306e-10        4.657e-10        3.981e-10      
                  -9.795e-06        3.900e-15         25.0000       
                 1               
  4.260e-06        3.303e-10        4.637e-10        3.970e-10      
                  -9.741e-06        3.867e-15         25.0000       
                 1               
  4.270e-06        3.301e-10        4.663e-10        3.982e-10      
                  -9.751e-06        3.883e-15         25.0000       
                 1               
  4.280e-06        3.286e-10        4.747e-10        4.016e-10      
                  -9.779e-06        3.927e-15         25.0000       
                 1               
  4.290e-06        3.291e-10        4.718e-10        4.005e-10      
                  -9.804e-06        3.926e-15         25.0000       
                 1               
  4.300e-06        3.297e-10        4.731e-10        4.014e-10      
                  -9.775e-06        3.924e-15         25.0000       
                 1               
  4.310e-06        3.292e-10        5.312e-10        4.302e-10      
                  -1.000e-05        4.302e-15         25.0000       
                 1               
  4.320e-06        3.283e-10        4.774e-10        4.028e-10      
                  -9.861e-06        3.972e-15         25.0000       
                 1               
  4.330e-06        3.278e-10        4.766e-10        4.022e-10      
                  -9.826e-06        3.952e-15         25.0000       
                 1               
  4.340e-06        3.281e-10        4.746e-10        4.013e-10      
                  -9.819e-06        3.941e-15         25.0000       
                 1               
  4.350e-06        3.272e-10        4.766e-10        4.019e-10      
                  -9.825e-06        3.949e-15         25.0000       
                 1               
  4.360e-06        3.267e-10        4.725e-10        3.996e-10      
                  -9.823e-06        3.925e-15         25.0000       
                 1               
  4.370e-06        3.266e-10        5.305e-10        4.285e-10      
                  -9.855e-06        4.223e-15         25.0000       
                 1               
  4.380e-06        3.262e-10        5.301e-10        4.282e-10      
                  -9.859e-06        4.221e-15         25.0000       
                 1               
  4.390e-06        3.256e-10        4.737e-10        3.996e-10      
                  -9.798e-06        3.916e-15         25.0000       
                 1               
  4.400e-06        3.253e-10        4.763e-10        4.008e-10      
                  -9.802e-06        3.929e-15         25.0000       
                 1               
  4.410e-06        3.246e-10        4.586e-10        3.916e-10      
                  -9.829e-06        3.849e-15         25.0000       
                 1               
  4.420e-06        3.244e-10        4.729e-10        3.987e-10      
                  -9.811e-06        3.911e-15         25.0000       
                 1               
  4.430e-06        3.241e-10        4.729e-10        3.985e-10      
                  -9.831e-06        3.918e-15         25.0000       
                 1               
  4.440e-06        3.234e-10        4.685e-10        3.960e-10      
                  -9.850e-06        3.901e-15         25.0000       
                 1               
  4.450e-06        3.235e-10        4.726e-10        3.980e-10      
                  -9.813e-06        3.906e-15         25.0000       
                 1               
  4.460e-06        3.229e-10        4.576e-10        3.902e-10      
                  -9.866e-06        3.850e-15         25.0000       
                 1               
  4.470e-06        3.228e-10        4.723e-10        3.976e-10      
                  -9.822e-06        3.905e-15         25.0000       
                 1               
  4.480e-06        3.215e-10        4.591e-10        3.903e-10      
                  -9.828e-06        3.836e-15         25.0000       
                 1               
  4.490e-06        3.222e-10        4.725e-10        3.973e-10      
                  -9.859e-06        3.917e-15         25.0000       
                 1               
  4.500e-06        3.218e-10        4.719e-10        3.969e-10      
                  -9.862e-06        3.914e-15         25.0000       
                 1               
  4.510e-06        3.216e-10        4.737e-10        3.977e-10      
                  -9.838e-06        3.912e-15         25.0000       
                 1               
  4.520e-06        3.212e-10        4.727e-10        3.970e-10      
                  -9.849e-06        3.910e-15         25.0000       
                 1               
  4.530e-06        3.210e-10        4.723e-10        3.967e-10      
                  -9.869e-06        3.915e-15         25.0000       
                 1               
  4.540e-06        3.193e-10        4.534e-10        3.863e-10      
                  -9.829e-06        3.797e-15         25.0000       
                 1               
  4.550e-06        3.167e-10        4.736e-10        3.951e-10      
                  -9.878e-06        3.903e-15         25.0000       
                 1               
  4.560e-06        3.203e-10        4.731e-10        3.967e-10      
                  -9.892e-06        3.924e-15         25.0000       
                 1               
  4.570e-06        3.186e-10        4.702e-10        3.944e-10      
                  -9.911e-06        3.908e-15         25.0000       
                 1               
  4.580e-06        3.187e-10        4.734e-10        3.960e-10      
                  -9.867e-06        3.908e-15         25.0000       
                 1               
  4.590e-06        3.186e-10        4.705e-10        3.945e-10      
                  -9.835e-06        3.880e-15         25.0000       
                 1               
  4.600e-06        3.175e-10        4.702e-10        3.939e-10      
                  -9.867e-06        3.886e-15         25.0000       
                 1               
  4.610e-06        3.151e-10        4.701e-10        3.926e-10      
                  -9.874e-06        3.876e-15         25.0000       
                 1               
  4.620e-06        3.172e-10        4.700e-10        3.936e-10      
                  -9.860e-06        3.881e-15         25.0000       
                 1               
  4.630e-06        3.173e-10        4.719e-10        3.946e-10      
                  -9.849e-06        3.886e-15         25.0000       
                 1               
  4.640e-06        3.170e-10        4.721e-10        3.945e-10      
                  -9.839e-06        3.881e-15         25.0000       
                 1               
  4.650e-06        3.166e-10        4.720e-10        3.943e-10      
                  -9.840e-06        3.880e-15         25.0000       
                 1               
  4.660e-06        3.162e-10        4.719e-10        3.940e-10      
                  -9.845e-06        3.879e-15         25.0000       
                 1               
  4.670e-06        3.158e-10        4.717e-10        3.938e-10      
                  -9.846e-06        3.877e-15         25.0000       
                 1               
  4.680e-06        3.155e-10        4.716e-10        3.936e-10      
                  -9.847e-06        3.876e-15         25.0000       
                 1               
  4.690e-06        3.152e-10        4.703e-10        3.927e-10      
                  -9.866e-06        3.875e-15         25.0000       
                 1               
  4.700e-06        3.149e-10        4.706e-10        3.928e-10      
                  -9.847e-06        3.868e-15         25.0000       
                 1               
  4.710e-06        3.148e-10        4.700e-10        3.924e-10      
                  -9.877e-06        3.876e-15         25.0000       
                 1               
  4.720e-06        3.145e-10        4.706e-10        3.926e-10      
                  -9.870e-06        3.874e-15         25.0000       
                 1               
  4.730e-06        3.142e-10        4.702e-10        3.922e-10      
                  -9.858e-06        3.866e-15         25.0000       
                 1               
  4.740e-06        3.138e-10        4.702e-10        3.920e-10      
                  -9.858e-06        3.864e-15         25.0000       
                 1               
  4.750e-06        3.136e-10        4.704e-10        3.920e-10      
                  -9.872e-06        3.870e-15         25.0000       
                 1               
  4.760e-06        3.136e-10        4.680e-10        3.908e-10      
                  -9.903e-06        3.870e-15         25.0000       
                 1               
  4.770e-06        3.101e-10        5.196e-10        4.149e-10      
                  -9.909e-06        4.111e-15         25.0000       
                 1               
  4.780e-06        3.125e-10        4.694e-10        3.909e-10      
                  -9.977e-06        3.900e-15         25.0000       
                 1               
  4.790e-06        3.125e-10        4.698e-10        3.911e-10      
                  -9.953e-06        3.893e-15         25.0000       
                 1               
  4.800e-06        3.123e-10        4.696e-10        3.909e-10      
                  -9.965e-06        3.896e-15         25.0000       
                 1               
  4.810e-06        3.118e-10        5.185e-10        4.152e-10      
                  -1.004e-05        4.167e-15         25.0000       
                 1               
  4.820e-06        3.117e-10        5.182e-10        4.150e-10      
                  -1.004e-05        4.164e-15         25.0000       
                 1               
  4.830e-06        3.116e-10        4.672e-10        3.894e-10      
                  -9.996e-06        3.893e-15         25.0000       
                 1               
  4.840e-06        3.081e-10        5.171e-10        4.126e-10      
                  -1.003e-05        4.140e-15         25.0000       
                 1               
  4.850e-06        3.109e-10        5.174e-10        4.141e-10      
                  -1.006e-05        4.167e-15         25.0000       
                 1               
  4.860e-06        3.118e-10        5.175e-10        4.147e-10      
                  -1.006e-05        4.171e-15         25.0000       
                 1               
  4.870e-06        3.101e-10        5.168e-10        4.135e-10      
                  -1.006e-05        4.158e-15         25.0000       
                 1               
  4.880e-06        3.102e-10        5.166e-10        4.134e-10      
[...]
                 1               
  1.885e-05        3.074e-10        5.470e-10        4.272e-10      
                  -1.497e-05        6.396e-15         25.0000       
                 1               
  1.886e-05        3.074e-10        5.471e-10        4.272e-10      
                  -1.498e-05        6.402e-15         25.0000       
                 1               
  1.887e-05        3.073e-10        5.466e-10        4.270e-10      
                  -1.476e-05        6.303e-15         25.0000       
                 1               
  1.888e-05        3.115e-10        5.406e-10        4.261e-10      
                  -1.482e-05        6.314e-15         25.0000       
                 1               
  1.889e-05        3.114e-10        5.487e-10        4.300e-10      
                  -1.500e-05        6.452e-15         25.0000       
                 1               
  1.890e-05        3.100e-10        5.464e-10        4.282e-10      
                  -1.512e-05        6.473e-15         25.0000       
                 1               
  1.891e-05        3.096e-10        5.440e-10        4.268e-10      
                  -1.499e-05        6.398e-15         25.0000       
                 1               
  1.892e-05        3.097e-10        5.441e-10        4.269e-10      
                  -1.502e-05        6.414e-15         25.0000       
                 1               
  1.893e-05        3.071e-10        5.496e-10        4.283e-10      
                  -1.507e-05        6.456e-15         25.0000       
                 1               
  1.894e-05        3.071e-10        5.497e-10        4.284e-10      
                  -1.508e-05        6.461e-15         25.0000       
                 1               
  1.895e-05        3.077e-10        5.456e-10        4.266e-10      
                  -1.496e-05        6.383e-15         25.0000       
                 1               
  1.896e-05        3.120e-10        5.379e-10        4.249e-10      
                  -1.495e-05        6.352e-15         25.0000       
                 1               
  1.897e-05        3.097e-10        5.362e-10        4.230e-10      
                  -1.499e-05        6.339e-15         25.0000       
                 1               
  1.898e-05        3.097e-10        5.512e-10        4.304e-10      
                  -1.538e-05        6.622e-15         25.0000       
                 1               
  1.899e-05        3.097e-10        5.507e-10        4.302e-10      
                  -1.558e-05        6.704e-15         25.0000       
                 1               
  1.900e-05        3.097e-10        5.504e-10        4.301e-10      
                  -1.568e-05        6.743e-15         25.0000       
                 1               
  1.901e-05        3.098e-10        5.502e-10        4.300e-10      
                  -1.567e-05        6.737e-15         25.0000       
                 1               
  1.902e-05        3.098e-10        5.497e-10        4.297e-10      
                  -1.566e-05        6.730e-15         25.0000       
                 1               
  1.903e-05        3.098e-10        5.501e-10        4.299e-10      
                  -1.566e-05        6.733e-15         25.0000       
                 1               
  1.904e-05        3.098e-10        5.502e-10        4.300e-10      
                  -1.567e-05        6.738e-15         25.0000       
                 1               
  1.905e-05        3.098e-10        5.503e-10        4.301e-10      
                  -1.568e-05        6.743e-15         25.0000       
                 1               
  1.906e-05        3.098e-10        5.504e-10        4.301e-10      
                  -1.569e-05        6.747e-15         25.0000       
                 1               
  1.907e-05        3.099e-10        5.505e-10        4.302e-10      
                  -1.569e-05        6.751e-15         25.0000       
                 1               
  1.908e-05        3.099e-10        5.507e-10        4.303e-10      
                  -1.570e-05        6.755e-15         25.0000       
                 1               
  1.909e-05        3.099e-10        5.508e-10        4.303e-10      
                  -1.571e-05        6.759e-15         25.0000       
                 1               
  1.910e-05        3.099e-10        5.509e-10        4.304e-10      
                  -1.571e-05        6.763e-15         25.0000       
                 1               
  1.911e-05        3.099e-10        5.510e-10        4.305e-10      
                  -1.572e-05        6.767e-15         25.0000       
                 1               
  1.912e-05        3.099e-10        5.512e-10        4.305e-10      
                  -1.573e-05        6.771e-15         25.0000       
                 1               
  1.913e-05        3.100e-10        5.513e-10        4.306e-10      
                  -1.573e-05        6.775e-15         25.0000       
                 1               
  1.914e-05        3.100e-10        5.514e-10        4.307e-10      
                  -1.574e-05        6.779e-15         25.0000       
                 1               
  1.915e-05        3.100e-10        5.515e-10        4.308e-10      
                  -1.575e-05        6.782e-15         25.0000       
                 1               
  1.916e-05        3.100e-10        5.516e-10        4.308e-10      
                  -1.575e-05        6.786e-15         25.0000       
                 1               
  1.917e-05        3.101e-10        5.517e-10        4.309e-10      
                  -1.576e-05        6.790e-15         25.0000       
                 1               
  1.918e-05        3.101e-10        5.518e-10        4.310e-10      
                  -1.576e-05        6.794e-15         25.0000       
                 1               
  1.919e-05        3.101e-10        5.519e-10        4.310e-10      
                  -1.577e-05        6.797e-15         25.0000       
                 1               
  1.920e-05        3.102e-10        5.520e-10        4.311e-10      
                  -1.578e-05        6.801e-15         25.0000       
                 1               
  1.921e-05        3.102e-10        5.521e-10        4.312e-10      
                  -1.578e-05        6.805e-15         25.0000       
                 1               
  1.922e-05        3.103e-10        5.522e-10        4.312e-10      
                  -1.579e-05        6.808e-15         25.0000       
                 1               
  1.923e-05        3.103e-10        5.523e-10        4.313e-10      
                  -1.579e-05        6.812e-15         25.0000       
                 1               
  1.924e-05        3.104e-10        5.523e-10        4.314e-10      
                  -1.580e-05        6.815e-15         25.0000       
                 1               
  1.925e-05        3.104e-10        5.524e-10        4.314e-10      
                  -1.581e-05        6.819e-15         25.0000       
                 1               
  1.926e-05        3.105e-10        5.525e-10        4.315e-10      
                  -1.581e-05        6.822e-15         25.0000       
                 1               
  1.927e-05        3.106e-10        5.526e-10        4.316e-10      
                  -1.582e-05        6.826e-15         25.0000       
                 1               
  1.928e-05        3.106e-10        5.527e-10        4.316e-10      
                  -1.582e-05        6.829e-15         25.0000       
                 1               
  1.929e-05        3.107e-10        5.527e-10        4.317e-10      
                  -1.583e-05        6.833e-15         25.0000       
                 1               
  1.930e-05        3.108e-10        5.528e-10        4.318e-10      
                  -1.583e-05        6.836e-15         25.0000       
                 1               
  1.931e-05        3.108e-10        5.529e-10        4.318e-10      
                  -1.584e-05        6.839e-15         25.0000       
                 1               
  1.932e-05        3.109e-10        5.529e-10        4.319e-10      
                  -1.584e-05        6.843e-15         25.0000       
                 1               
  1.933e-05        3.110e-10        5.530e-10        4.320e-10      
                  -1.585e-05        6.846e-15         25.0000       
                 1               
  1.934e-05        3.111e-10        5.530e-10        4.320e-10      
                  -1.585e-05        6.849e-15         25.0000       
                 1               
  1.935e-05        3.111e-10        5.531e-10        4.321e-10      
                  -1.586e-05        6.853e-15         25.0000       
                 1               
  1.936e-05        3.112e-10        5.532e-10        4.322e-10      
                  -1.587e-05        6.858e-15         25.0000       
                 1               
  1.937e-05        3.113e-10        5.532e-10        4.322e-10      
                  -1.587e-05        6.861e-15         25.0000       
                 1               
  1.938e-05        3.113e-10        5.533e-10        4.323e-10      
                  -1.588e-05        6.864e-15         25.0000       
                 1               
  1.939e-05        3.121e-10        5.530e-10        4.325e-10      
                  -1.589e-05        6.874e-15         25.0000       
                 1               
  1.940e-05        3.121e-10        5.531e-10        4.326e-10      
                  -1.590e-05        6.878e-15         25.0000       
                 1               
  1.941e-05        3.115e-10        5.536e-10        4.325e-10      
                  -1.590e-05        6.876e-15         25.0000       
                 1               
  1.942e-05        3.110e-10        5.550e-10        4.330e-10      
                  -1.591e-05        6.887e-15         25.0000       
                 1               
  1.943e-05        3.108e-10        5.551e-10        4.330e-10      
                  -1.591e-05        6.890e-15         25.0000       
                 1               
  1.944e-05        3.109e-10        5.552e-10        4.330e-10      
                  -1.592e-05        6.892e-15         25.0000       
                 1               
  1.945e-05        3.123e-10        5.532e-10        4.328e-10      
                  -1.594e-05        6.898e-15         25.0000       
                 1               
  1.946e-05        3.129e-10        5.555e-10        4.342e-10      
                  -1.598e-05        6.938e-15         25.0000       
                 1               
  1.947e-05        3.129e-10        5.555e-10        4.342e-10      
                  -1.598e-05        6.940e-15         25.0000       
                 1               
  1.948e-05        3.126e-10        5.535e-10        4.331e-10      
                  -1.597e-05        6.916e-15         25.0000       
                 1               
  1.949e-05        3.110e-10        5.556e-10        4.333e-10      
                  -1.596e-05        6.916e-15         25.0000       
                 1               
  1.950e-05        3.131e-10        5.555e-10        4.343e-10      
                  -1.597e-05        6.936e-15         25.0000       
                 1               
  1.951e-05        3.130e-10        5.557e-10        4.344e-10      
                  -1.599e-05        6.946e-15         25.0000       
                 1               
  1.952e-05        3.130e-10        5.542e-10        4.336e-10      
                  -1.598e-05        6.927e-15         25.0000       
                 1               
  1.953e-05        3.128e-10        5.532e-10        4.330e-10      
                  -1.598e-05        6.918e-15         25.0000       
                 1               
  1.954e-05        3.124e-10        5.544e-10        4.334e-10      
                  -1.598e-05        6.928e-15         25.0000       
                 1               
  1.955e-05        3.130e-10        5.537e-10        4.333e-10      
                  -1.598e-05        6.927e-15         25.0000       
                 1               
  1.956e-05        3.130e-10        5.535e-10        4.333e-10      
                  -1.599e-05        6.928e-15         25.0000       
                 1               
  1.957e-05        3.134e-10        5.564e-10        4.349e-10      
                  -1.601e-05        6.963e-15         25.0000       
                 1               
  1.958e-05        3.133e-10        5.556e-10        4.344e-10      
                  -1.600e-05        6.952e-15         25.0000       
                 1               
  1.959e-05        3.132e-10        5.537e-10        4.334e-10      
                  -1.600e-05        6.935e-15         25.0000       
                 1               
  1.960e-05        3.131e-10        5.546e-10        4.338e-10      
                  -1.600e-05        6.942e-15         25.0000       
                 1               
  1.961e-05        3.119e-10        5.564e-10        4.342e-10      
                  -1.601e-05        6.951e-15         25.0000       
                 1               
  1.962e-05        3.123e-10        5.564e-10        4.343e-10      
                  -1.602e-05        6.956e-15         25.0000       
                 1               
  1.963e-05        3.122e-10        5.565e-10        4.344e-10      
                  -1.601e-05        6.955e-15         25.0000       
                 1               
  1.964e-05        3.128e-10        5.555e-10        4.341e-10      
                  -1.602e-05        6.955e-15         25.0000       
                 1               
  1.965e-05        3.137e-10        5.568e-10        4.353e-10      
                  -1.605e-05        6.986e-15         25.0000       
                 1               
  1.966e-05        3.118e-10        5.577e-10        4.347e-10      
                  -1.603e-05        6.969e-15         25.0000       
                 1               
  1.967e-05        3.146e-10        5.563e-10        4.355e-10      
                  -1.594e-05        6.941e-15         25.0000       
                 1               
  1.968e-05        3.135e-10        5.570e-10        4.352e-10      
                  -1.593e-05        6.935e-15         25.0000       
                 1               
  1.969e-05        3.140e-10        5.558e-10        4.349e-10      
                  -1.603e-05        6.973e-15         25.0000       
                 1               
  1.970e-05        3.142e-10        5.569e-10        4.355e-10      
                  -1.605e-05        6.992e-15         25.0000       
                 1               
  1.971e-05        3.140e-10        5.557e-10        4.348e-10      
                  -1.604e-05        6.976e-15         25.0000       
                 1               
  1.972e-05        3.142e-10        5.568e-10        4.355e-10      
                  -1.605e-05        6.990e-15         25.0000       
                 1               
  1.973e-05        3.156e-10        5.551e-10        4.354e-10      
                  -1.610e-05        7.008e-15         25.0000       
                 1               
  1.974e-05        3.140e-10        5.557e-10        4.349e-10      
                  -1.606e-05        6.983e-15         25.0000       
                 1               
  1.975e-05        3.142e-10        5.554e-10        4.348e-10      
                  -1.607e-05        6.986e-15         25.0000       
                 1               
  1.976e-05        3.143e-10        5.551e-10        4.347e-10      
                  -1.612e-05        7.006e-15         25.0000       
                 1               
  1.977e-05        3.141e-10        5.560e-10        4.351e-10      
                  -1.606e-05        6.989e-15         25.0000       
                 1               
  1.978e-05        3.138e-10        5.565e-10        4.351e-10      
                  -1.607e-05        6.992e-15         25.0000       
                 1               
  1.979e-05        3.139e-10        5.565e-10        4.352e-10      
                  -1.607e-05        6.996e-15         25.0000       
                 1               
  1.980e-05        3.164e-10        5.580e-10        4.372e-10      
                  -1.609e-05        7.036e-15         25.0000       
                 1               
  1.981e-05        3.125e-10        5.583e-10        4.354e-10      
                  -1.575e-05        6.859e-15         25.0000       
                 1               
  1.982e-05        3.165e-10        5.578e-10        4.372e-10      
                  -1.521e-05        6.648e-15         25.0000       
                 1               
  1.983e-05        3.145e-10        5.565e-10        4.355e-10      
                  -1.595e-05        6.948e-15         25.0000       
                 1               
  1.984e-05        3.160e-10        5.582e-10        4.371e-10      
                  -1.588e-05        6.942e-15         25.0000       
                 1               
  1.985e-05        3.148e-10        5.563e-10        4.355e-10      
                  -1.562e-05        6.803e-15         25.0000       
                 1               
  1.986e-05        3.145e-10        5.579e-10        4.362e-10      
                  -1.578e-05        6.882e-15         25.0000       
                 1               
  1.987e-05        3.165e-10        5.573e-10        4.369e-10      
                  -1.576e-05        6.886e-15         25.0000       
                 1               
  1.988e-05        3.106e-10        5.596e-10        4.351e-10      
                  -1.572e-05        6.840e-15         25.0000       
                 1               
  1.989e-05        3.157e-10        5.588e-10        4.373e-10      
                  -1.590e-05        6.954e-15         25.0000       
                 1               
  1.990e-05        3.172e-10        5.575e-10        4.374e-10      
                  -1.609e-05        7.037e-15         25.0000       
                 1               
  1.991e-05        3.147e-10        5.575e-10        4.361e-10      
                  -1.574e-05        6.862e-15         25.0000       
                 1               
  1.992e-05        3.165e-10        5.586e-10        4.375e-10      
                  -1.591e-05        6.963e-15         25.0000       
                 1               
  1.993e-05        3.126e-10        5.585e-10        4.355e-10      
                  -1.561e-05        6.799e-15         25.0000       
                 1               
  1.994e-05        3.166e-10        5.591e-10        4.379e-10      
                  -1.618e-05        7.085e-15         25.0000       
                 1               
  1.995e-05        3.169e-10        5.579e-10        4.374e-10      
                  -1.601e-05        7.002e-15         25.0000       
                 1               
  1.996e-05        3.162e-10        5.591e-10        4.376e-10      
                  -1.583e-05        6.929e-15         25.0000       
                 1               
  1.997e-05        3.168e-10        5.591e-10        4.379e-10      
                  -1.613e-05        7.064e-15         25.0000       
                 1               
  1.998e-05        3.174e-10        5.591e-10        4.383e-10      
                  -1.615e-05        7.079e-15         25.0000       
                 1               
  1.999e-05        3.153e-10        5.592e-10        4.373e-10      
                  -1.599e-05        6.990e-15         25.0000       
                 1               
  2.000e-05        3.152e-10        5.592e-10        4.372e-10      
                  -1.612e-05        7.049e-15         25.0000       
                 1               
