 ****** HSPICE -- O-2018.09 linux64 (Aug 26 2018) ******                        
  Copyright (c) 1986 - 2022 by Synopsys, Inc. All Rights Reserved.              
  This software and the associated documentation are proprietary
  to Synopsys, Inc. This software may only be used in accordance
  with the terms and conditions of a written license agreement with
  Synopsys, Inc. All other use, reproduction, or distribution of
  this software is strictly prohibited.
  Input File: min_pdp.sp                                                        
  Command line options: /usr/cad/synopsys/hspice/cur/hspice/linux64/hspice -i min_pdp.sp -o min_pdp.lis
 lic:  
 lic: FLEXlm: SDK_11.6.9.6 
 lic: USER:   vlsisj2022063        HOSTNAME: tsri06 
 lic: HOSTID: b4b52fc6a3e9         PID:      28319 
 lic: Using FLEXlm license file: 
 lic: 26585@lsncku 
 lic: Checkout 1 hspice 
 lic: License/Maintenance for hspice will expire on 14-may-2022/2021.09 
 lic: 156(in_use)/190(total) FLOATING license(s) on SERVER 26585@lsncku 
 lic:   
  **warning** (min_pdp.cir:18) Parameter name is not defined in .param. Please enter parameter variable with their respective value/expression.
  **warning** (min_pdp.cir:29) Global net name, "gnd", in subckt pin list. The pin will be connected to the local net. Recommend to not use global net names in subckt pin lists.
1****** HSPICE -- O-2018.09 linux64 (Aug 26 2018) ******                        
 ******  
 **testbench**

 ****** circuit name directory
 circuit number to circuit name directory
   number circuitname                     definition         multiplier
        0 main circuit
        1 xmin_pdp.                       min_pdp            1.00 
  **info** (min_pdp.sp:26) DC voltage reset to initial transient source value in source 0:va. new dc=0.0000D+00
 

  
      

Element variations(Local):   element              parameter
 **info** set option symb=1 internally to help for convergence.
 *****************************************************************
 ******  option summary
 ******
 runlvl  = 3         bypass  = 2.0000    
  Opening plot unit= 15
 file=min_pdp.pa0

 **info** dc convergence successful at Newton-Raphson method 

   *** parameter size =    2.500E-07 ***

 ******
 **testbench**

 ****** transient analysis tnom=  25.000 temp=  25.000 ******
 rising_delay=   3.6098n  targ= 804.2098n   trig= 800.6000n
 falling_delay=   2.8867n  targ= 904.3867n   trig= 901.5000n
 delay_avg=   3.2483n
 power=  -9.0106u  from= 100.0000p     to=   2.0000u
 pdp=  29.2688f

          ***** job concluded
 **info** dc convergence successful at Newton-Raphson method 

   *** parameter size =    2.600E-07 ***

 ******
 **testbench**

 ****** transient analysis tnom=  25.000 temp=  25.000 ******
 rising_delay=   3.4846n  targ= 804.0846n   trig= 800.6000n
 falling_delay=   2.6755n  targ= 904.1755n   trig= 901.5000n
 delay_avg=   3.0800n
 power=  -8.9682u  from= 100.0000p     to=   2.0000u
 pdp=  27.6222f

          ***** job concluded
 **info** dc convergence successful at Newton-Raphson method 

   *** parameter size =    2.700E-07 ***

 ******
 **testbench**

 ****** transient analysis tnom=  25.000 temp=  25.000 ******
 rising_delay=   3.3675n  targ= 803.9675n   trig= 800.6000n
 falling_delay=   2.5893n  targ= 904.0893n   trig= 901.5000n
 delay_avg=   2.9784n
 power=  -8.9447u  from= 100.0000p     to=   2.0000u
 pdp=  26.6412f

          ***** job concluded
 **info** dc convergence successful at Newton-Raphson method 

   *** parameter size =    2.800E-07 ***

 ******
 **testbench**

 ****** transient analysis tnom=  25.000 temp=  25.000 ******
 rising_delay=   3.2280n  targ= 803.8280n   trig= 800.6000n
 falling_delay=   2.5133n  targ= 904.0133n   trig= 901.5000n
 delay_avg=   2.8707n
 power=  -8.9336u  from= 100.0000p     to=   2.0000u
 pdp=  25.6453f

          ***** job concluded
 **info** dc convergence successful at Newton-Raphson method 

   *** parameter size =    2.900E-07 ***

 ******
 **testbench**

 ****** transient analysis tnom=  25.000 temp=  25.000 ******
 rising_delay=   3.1517n  targ= 803.7517n   trig= 800.6000n
 falling_delay=   2.4410n  targ= 903.9410n   trig= 901.5000n
 delay_avg=   2.7964n
 power=  -8.9683u  from= 100.0000p     to=   2.0000u
 pdp=  25.0786f

          ***** job concluded
 **info** dc convergence successful at Newton-Raphson method 

   *** parameter size =    3.000E-07 ***

 ******
 **testbench**

 ****** transient analysis tnom=  25.000 temp=  25.000 ******
 rising_delay=   3.0537n  targ= 803.6537n   trig= 800.6000n
 falling_delay=   2.3700n  targ= 903.8700n   trig= 901.5000n
 delay_avg=   2.7118n
 power=  -8.9549u  from= 100.0000p     to=   2.0000u
 pdp=  24.2842f

          ***** job concluded
 **info** dc convergence successful at Newton-Raphson method 

   *** parameter size =    3.100E-07 ***

 ******
 **testbench**

 ****** transient analysis tnom=  25.000 temp=  25.000 ******
 rising_delay=   2.9476n  targ= 803.5476n   trig= 800.6000n
 falling_delay=   2.3113n  targ= 903.8113n   trig= 901.5000n
 delay_avg=   2.6294n
 power=  -8.9618u  from= 100.0000p     to=   2.0000u
 pdp=  23.5645f

          ***** job concluded
 **info** dc convergence successful at Newton-Raphson method 

   *** parameter size =    3.200E-07 ***

 ******
 **testbench**

 ****** transient analysis tnom=  25.000 temp=  25.000 ******
 rising_delay=   2.8825n  targ= 803.4825n   trig= 800.6000n
 falling_delay=   2.2525n  targ= 903.7525n   trig= 901.5000n
 delay_avg=   2.5675n
 power=  -8.9708u  from= 100.0000p     to=   2.0000u
 pdp=  23.0326f

          ***** job concluded
 **info** dc convergence successful at Newton-Raphson method 

   *** parameter size =    3.300E-07 ***

 ******
 **testbench**

 ****** transient analysis tnom=  25.000 temp=  25.000 ******
 rising_delay=   2.7893n  targ= 803.3893n   trig= 800.6000n
 falling_delay=   2.1944n  targ= 903.6944n   trig= 901.5000n
 delay_avg=   2.4918n
 power=  -8.9851u  from= 100.0000p     to=   2.0000u
 pdp=  22.3895f

          ***** job concluded
 **info** dc convergence successful at Newton-Raphson method 

   *** parameter size =    3.400E-07 ***

 ******
 **testbench**

 ****** transient analysis tnom=  25.000 temp=  25.000 ******
 rising_delay=   2.7101n  targ= 803.3101n   trig= 800.6000n
 falling_delay=   2.1460n  targ= 903.6460n   trig= 901.5000n
 delay_avg=   2.4280n
 power=  -8.9820u  from= 100.0000p     to=   2.0000u
 pdp=  21.8083f

          ***** job concluded
 **info** dc convergence successful at Newton-Raphson method 

   *** parameter size =    3.500E-07 ***

 ******
 **testbench**

 ****** transient analysis tnom=  25.000 temp=  25.000 ******
 rising_delay=   2.6619n  targ= 803.2619n   trig= 800.6000n
 falling_delay=   2.0906n  targ= 903.5906n   trig= 901.5000n
 delay_avg=   2.3762n
 power=  -8.9868u  from= 100.0000p     to=   2.0000u
 pdp=  21.3547f

          ***** job concluded
 **info** dc convergence successful at Newton-Raphson method 

   *** parameter size =    3.600E-07 ***

 ******
 **testbench**

 ****** transient analysis tnom=  25.000 temp=  25.000 ******
 rising_delay=   2.5837n  targ= 803.1837n   trig= 800.6000n
 falling_delay=   2.0522n  targ= 903.5522n   trig= 901.5000n
 delay_avg=   2.3179n
 power=  -8.9857u  from= 100.0000p     to=   2.0000u
 pdp=  20.8283f

          ***** job concluded
 **info** dc convergence successful at Newton-Raphson method 

   *** parameter size =    3.700E-07 ***

 ******
 **testbench**

 ****** transient analysis tnom=  25.000 temp=  25.000 ******
 rising_delay=   2.5190n  targ= 803.1190n   trig= 800.6000n
 falling_delay=   2.0080n  targ= 903.5080n   trig= 901.5000n
 delay_avg=   2.2635n
 power=  -8.9625u  from= 100.0000p     to=   2.0000u
 pdp=  20.2862f

          ***** job concluded
 **info** dc convergence successful at Newton-Raphson method 

   *** parameter size =    3.800E-07 ***

 ******
 **testbench**

 ****** transient analysis tnom=  25.000 temp=  25.000 ******
 rising_delay=   2.4463n  targ= 803.0463n   trig= 800.6000n
 falling_delay=   1.9620n  targ= 903.4620n   trig= 901.5000n
 delay_avg=   2.2041n
 power=  -8.9917u  from= 100.0000p     to=   2.0000u
 pdp=  19.8191f

          ***** job concluded
 **info** dc convergence successful at Newton-Raphson method 

   *** parameter size =    3.900E-07 ***

 ******
 **testbench**

 ****** transient analysis tnom=  25.000 temp=  25.000 ******
 rising_delay=   2.3850n  targ= 802.9850n   trig= 800.6000n
 falling_delay=   1.9225n  targ= 903.4225n   trig= 901.5000n
 delay_avg=   2.1538n
 power=  -9.0211u  from= 100.0000p     to=   2.0000u
 pdp=  19.4293f

          ***** job concluded
 **info** dc convergence successful at Newton-Raphson method 

   *** parameter size =    4.000E-07 ***

 ******
 **testbench**

 ****** transient analysis tnom=  25.000 temp=  25.000 ******
 rising_delay=   2.3529n  targ= 802.9529n   trig= 800.6000n
 falling_delay=   1.9605n  targ= 903.4605n   trig= 901.5000n
 delay_avg=   2.1567n
 power=  -9.0821u  from= 100.0000p     to=   2.0000u
 pdp=  19.5872f

          ***** job concluded
 **info** dc convergence successful at Newton-Raphson method 

   *** parameter size =    4.100E-07 ***

 ******
 **testbench**

 ****** transient analysis tnom=  25.000 temp=  25.000 ******
 rising_delay=   2.3012n  targ= 802.9012n   trig= 800.6000n
 falling_delay=   1.9310n  targ= 903.4310n   trig= 901.5000n
 delay_avg=   2.1161n
 power=  -9.0853u  from= 100.0000p     to=   2.0000u
 pdp=  19.2254f

          ***** job concluded
 **info** dc convergence successful at Newton-Raphson method 

   *** parameter size =    4.200E-07 ***

 ******
 **testbench**

 ****** transient analysis tnom=  25.000 temp=  25.000 ******
 rising_delay=   2.2557n  targ= 802.8557n   trig= 800.6000n
 falling_delay=   1.8934n  targ= 903.3934n   trig= 901.5000n
 delay_avg=   2.0746n
 power=  -9.0474u  from= 100.0000p     to=   2.0000u
 pdp=  18.7695f

          ***** job concluded
 **info** dc convergence successful at Newton-Raphson method 

   *** parameter size =    4.300E-07 ***

 ******
 **testbench**

 ****** transient analysis tnom=  25.000 temp=  25.000 ******
 rising_delay=   2.1980n  targ= 802.7980n   trig= 800.6000n
 falling_delay=   1.8743n  targ= 903.3743n   trig= 901.5000n
 delay_avg=   2.0362n
 power=  -9.0666u  from= 100.0000p     to=   2.0000u
 pdp=  18.4609f

          ***** job concluded
 **info** dc convergence successful at Newton-Raphson method 

   *** parameter size =    4.400E-07 ***

 ******
 **testbench**

 ****** transient analysis tnom=  25.000 temp=  25.000 ******
 rising_delay=   2.1560n  targ= 802.7560n   trig= 800.6000n
 falling_delay=   1.7495n  targ= 903.2495n   trig= 901.5000n
 delay_avg=   1.9528n
 power=  -9.0580u  from= 100.0000p     to=   2.0000u
 pdp=  17.6884f

          ***** job concluded
 **info** dc convergence successful at Newton-Raphson method 

   *** parameter size =    4.500E-07 ***

 ******
 **testbench**

 ****** transient analysis tnom=  25.000 temp=  25.000 ******
 rising_delay=   2.1209n  targ= 802.7209n   trig= 800.6000n
 falling_delay=   1.7978n  targ= 903.2978n   trig= 901.5000n
 delay_avg=   1.9593n
 power=  -9.1576u  from= 100.0000p     to=   2.0000u
 pdp=  17.9426f

          ***** job concluded
 **info** dc convergence successful at Newton-Raphson method 

   *** parameter size =    4.600E-07 ***

 ******
 **testbench**

 ****** transient analysis tnom=  25.000 temp=  25.000 ******
 rising_delay=   2.0536n  targ= 802.6536n   trig= 800.6000n
 falling_delay=   1.7684n  targ= 903.2684n   trig= 901.5000n
 delay_avg=   1.9110n
 power=  -9.0649u  from= 100.0000p     to=   2.0000u
 pdp=  17.3226f

          ***** job concluded
 **info** dc convergence successful at Newton-Raphson method 

   *** parameter size =    4.700E-07 ***

 ******
 **testbench**

 ****** transient analysis tnom=  25.000 temp=  25.000 ******
 rising_delay=   2.0279n  targ= 802.6279n   trig= 800.6000n
 falling_delay=   1.6643n  targ= 903.1643n   trig= 901.5000n
 delay_avg=   1.8461n
 power=  -9.1073u  from= 100.0000p     to=   2.0000u
 pdp=  16.8131f

          ***** job concluded
 **info** dc convergence successful at Newton-Raphson method 

   *** parameter size =    4.800E-07 ***

 ******
 **testbench**

 ****** transient analysis tnom=  25.000 temp=  25.000 ******
 rising_delay=   1.9986n  targ= 802.5986n   trig= 800.6000n
 falling_delay=   1.6382n  targ= 903.1382n   trig= 901.5000n
 delay_avg=   1.8184n
 power=  -9.0948u  from= 100.0000p     to=   2.0000u
 pdp=  16.5379f

          ***** job concluded
 **info** dc convergence successful at Newton-Raphson method 

   *** parameter size =    4.900E-07 ***

 ******
 **testbench**

 ****** transient analysis tnom=  25.000 temp=  25.000 ******
 rising_delay=   1.9545n  targ= 802.5545n   trig= 800.6000n
 falling_delay=   1.7136n  targ= 903.2136n   trig= 901.5000n
 delay_avg=   1.8340n
 power=  -9.1548u  from= 100.0000p     to=   2.0000u
 pdp=  16.7903f

          ***** job concluded
 **info** dc convergence successful at Newton-Raphson method 

   *** parameter size =    5.000E-07 ***

 ******
 **testbench**

 ****** transient analysis tnom=  25.000 temp=  25.000 ******
 rising_delay=   1.9264n  targ= 802.5264n   trig= 800.6000n
 falling_delay=   1.5880n  targ= 903.0880n   trig= 901.5000n
 delay_avg=   1.7572n
 power=  -9.1508u  from= 100.0000p     to=   2.0000u
 pdp=  16.0798f

          ***** job concluded
 **info** dc convergence successful at Newton-Raphson method 

   *** parameter size =    5.100E-07 ***

 ******
 **testbench**

 ****** transient analysis tnom=  25.000 temp=  25.000 ******
 rising_delay=   1.8891n  targ= 802.4891n   trig= 800.6000n
 falling_delay=   1.6642n  targ= 903.1642n   trig= 901.5000n
 delay_avg=   1.7766n
 power=  -9.1294u  from= 100.0000p     to=   2.0000u
 pdp=  16.2195f

          ***** job concluded
 **info** dc convergence successful at Newton-Raphson method 

   *** parameter size =    5.200E-07 ***

 ******
 **testbench**

 ****** transient analysis tnom=  25.000 temp=  25.000 ******
 rising_delay=   1.8442n  targ= 802.4442n   trig= 800.6000n
 falling_delay=   1.6398n  targ= 903.1398n   trig= 901.5000n
 delay_avg=   1.7420n
 power=  -9.0844u  from= 100.0000p     to=   2.0000u
 pdp=  15.8249f

          ***** job concluded
 **info** dc convergence successful at Newton-Raphson method 

   *** parameter size =    5.300E-07 ***

 ******
 **testbench**

 ****** transient analysis tnom=  25.000 temp=  25.000 ******
 rising_delay=   1.8270n  targ= 802.4270n   trig= 800.6000n
 falling_delay=   1.6139n  targ= 903.1139n   trig= 901.5000n
 delay_avg=   1.7204n
 power=  -9.1171u  from= 100.0000p     to=   2.0000u
 pdp=  15.6854f

          ***** job concluded
 **info** dc convergence successful at Newton-Raphson method 

   *** parameter size =    5.400E-07 ***

 ******
 **testbench**

 ****** transient analysis tnom=  25.000 temp=  25.000 ******
 rising_delay=   1.7857n  targ= 802.3857n   trig= 800.6000n
 falling_delay=   1.4949n  targ= 902.9949n   trig= 901.5000n
 delay_avg=   1.6403n
 power=  -9.0859u  from= 100.0000p     to=   2.0000u
 pdp=  14.9038f

          ***** job concluded
 **info** dc convergence successful at Newton-Raphson method 

   *** parameter size =    5.500E-07 ***

 ******
 **testbench**

 ****** transient analysis tnom=  25.000 temp=  25.000 ******
 rising_delay=   1.7659n  targ= 802.3659n   trig= 800.6000n
 falling_delay=   1.5701n  targ= 903.0701n   trig= 901.5000n
 delay_avg=   1.6680n
 power=  -9.1016u  from= 100.0000p     to=   2.0000u
 pdp=  15.1816f

          ***** job concluded
 **info** dc convergence successful at Newton-Raphson method 

   *** parameter size =    5.600E-07 ***

 ******
 **testbench**

 ****** transient analysis tnom=  25.000 temp=  25.000 ******
 rising_delay=   1.7340n  targ= 802.3340n   trig= 800.6000n
 falling_delay=   1.4547n  targ= 902.9547n   trig= 901.5000n
 delay_avg=   1.5943n
 power=  -9.0699u  from= 100.0000p     to=   2.0000u
 pdp=  14.4603f

          ***** job concluded
 **info** dc convergence successful at Newton-Raphson method 

   *** parameter size =    5.700E-07 ***

 ******
 **testbench**

 ****** transient analysis tnom=  25.000 temp=  25.000 ******
 rising_delay=   1.6917n  targ= 802.2917n   trig= 800.6000n
 falling_delay=   1.5291n  targ= 903.0291n   trig= 901.5000n
 delay_avg=   1.6104n
 power=  -9.0891u  from= 100.0000p     to=   2.0000u
 pdp=  14.6371f

          ***** job concluded
 **info** dc convergence successful at Newton-Raphson method 

   *** parameter size =    5.800E-07 ***

 ******
 **testbench**

 ****** transient analysis tnom=  25.000 temp=  25.000 ******
 rising_delay=   1.6771n  targ= 802.2771n   trig= 800.6000n
 falling_delay=   1.4156n  targ= 902.9156n   trig= 901.5000n
 delay_avg=   1.5463n
 power=  -9.0531u  from= 100.0000p     to=   2.0000u
 pdp=  13.9991f

          ***** job concluded
 **info** dc convergence successful at Newton-Raphson method 

   *** parameter size =    5.900E-07 ***

 ******
 **testbench**

 ****** transient analysis tnom=  25.000 temp=  25.000 ******
 rising_delay=   1.6478n  targ= 802.2478n   trig= 800.6000n
 falling_delay=   1.3961n  targ= 902.8961n   trig= 901.5000n
 delay_avg=   1.5220n
 power=  -9.1088u  from= 100.0000p     to=   2.0000u
 pdp=  13.8632f

          ***** job concluded
 **info** dc convergence successful at Newton-Raphson method 

   *** parameter size =    6.000E-07 ***

 ******
 **testbench**

 ****** transient analysis tnom=  25.000 temp=  25.000 ******
 rising_delay=   1.6238n  targ= 802.2238n   trig= 800.6000n
 falling_delay=   1.3730n  targ= 902.8730n   trig= 901.5000n
 delay_avg=   1.4984n
 power=  -9.0595u  from= 100.0000p     to=   2.0000u
 pdp=  13.5748f

          ***** job concluded
 **info** dc convergence successful at Newton-Raphson method 

   *** parameter size =    6.100E-07 ***

 ******
 **testbench**

 ****** transient analysis tnom=  25.000 temp=  25.000 ******
 rising_delay=   1.5997n  targ= 802.1997n   trig= 800.6000n
 falling_delay=   1.3641n  targ= 902.8641n   trig= 901.5000n
 delay_avg=   1.4819n
 power=  -9.1086u  from= 100.0000p     to=   2.0000u
 pdp=  13.4978f

          ***** job concluded
 **info** dc convergence successful at Newton-Raphson method 

   *** parameter size =    6.200E-07 ***

 ******
 **testbench**

 ****** transient analysis tnom=  25.000 temp=  25.000 ******
 rising_delay=   1.5685n  targ= 802.1685n   trig= 800.6000n
 falling_delay=   1.3352n  targ= 902.8352n   trig= 901.5000n
 delay_avg=   1.4518n
 power=  -9.1287u  from= 100.0000p     to=   2.0000u
 pdp=  13.2533f

          ***** job concluded
 **info** dc convergence successful at Newton-Raphson method 

   *** parameter size =    6.300E-07 ***

 ******
 **testbench**

 ****** transient analysis tnom=  25.000 temp=  25.000 ******
 rising_delay=   1.5496n  targ= 802.1496n   trig= 800.6000n
 falling_delay=   1.3277n  targ= 902.8277n   trig= 901.5000n
 delay_avg=   1.4386n
 power=  -9.1125u  from= 100.0000p     to=   2.0000u
 pdp=  13.1095f

          ***** job concluded
 **info** dc convergence successful at Newton-Raphson method 

   *** parameter size =    6.400E-07 ***

 ******
 **testbench**

 ****** transient analysis tnom=  25.000 temp=  25.000 ******
 rising_delay=   1.5280n  targ= 802.1280n   trig= 800.6000n
 falling_delay=   1.3122n  targ= 902.8122n   trig= 901.5000n
 delay_avg=   1.4201n
 power=  -9.0526u  from= 100.0000p     to=   2.0000u
 pdp=  12.8556f

          ***** job concluded
 **info** dc convergence successful at Newton-Raphson method 

   *** parameter size =    6.500E-07 ***

 ******
 **testbench**

 ****** transient analysis tnom=  25.000 temp=  25.000 ******
 rising_delay=   1.5120n  targ= 802.1120n   trig= 800.6000n
 falling_delay=   1.3858n  targ= 902.8858n   trig= 901.5000n
 delay_avg=   1.4489n
 power=  -9.1079u  from= 100.0000p     to=   2.0000u
 pdp=  13.1962f

          ***** job concluded
 **info** dc convergence successful at Newton-Raphson method 

   *** parameter size =    6.600E-07 ***

 ******
 **testbench**

 ****** transient analysis tnom=  25.000 temp=  25.000 ******
 rising_delay=   1.4936n  targ= 802.0936n   trig= 800.6000n
 falling_delay=   1.2822n  targ= 902.7822n   trig= 901.5000n
 delay_avg=   1.3879n
 power=  -9.1000u  from= 100.0000p     to=   2.0000u
 pdp=  12.6300f

          ***** job concluded
 **info** dc convergence successful at Newton-Raphson method 

   *** parameter size =    6.700E-07 ***

 ******
 **testbench**

 ****** transient analysis tnom=  25.000 temp=  25.000 ******
 rising_delay=   1.4627n  targ= 802.0627n   trig= 800.6000n
 falling_delay=   1.2719n  targ= 902.7719n   trig= 901.5000n
 delay_avg=   1.3673n
 power=  -9.0496u  from= 100.0000p     to=   2.0000u
 pdp=  12.3735f

          ***** job concluded
 **info** dc convergence successful at Newton-Raphson method 

   *** parameter size =    6.800E-07 ***

 ******
 **testbench**

 ****** transient analysis tnom=  25.000 temp=  25.000 ******
 rising_delay=   1.4424n  targ= 802.0424n   trig= 800.6000n
 falling_delay=   1.2539n  targ= 902.7539n   trig= 901.5000n
 delay_avg=   1.3482n
 power=  -9.0789u  from= 100.0000p     to=   2.0000u
 pdp=  12.2398f

          ***** job concluded
 **info** dc convergence successful at Newton-Raphson method 

   *** parameter size =    6.900E-07 ***

 ******
 **testbench**

 ****** transient analysis tnom=  25.000 temp=  25.000 ******
 rising_delay=   1.4253n  targ= 802.0253n   trig= 800.6000n
 falling_delay=   1.3179n  targ= 902.8179n   trig= 901.5000n
 delay_avg=   1.3716n
 power=  -9.1311u  from= 100.0000p     to=   2.0000u
 pdp=  12.5241f

          ***** job concluded
 **info** dc convergence successful at Newton-Raphson method 

   *** parameter size =    7.000E-07 ***

 ******
 **testbench**

 ****** transient analysis tnom=  25.000 temp=  25.000 ******
 rising_delay=   1.4077n  targ= 802.0077n   trig= 800.6000n
 falling_delay=   1.2317n  targ= 902.7317n   trig= 901.5000n
 delay_avg=   1.3197n
 power=  -9.1431u  from= 100.0000p     to=   2.0000u
 pdp=  12.0663f

          ***** job concluded
 **info** dc convergence successful at Newton-Raphson method 

   *** parameter size =    7.100E-07 ***

 ******
 **testbench**

 ****** transient analysis tnom=  25.000 temp=  25.000 ******
 rising_delay=   1.3895n  targ= 801.9895n   trig= 800.6000n
 falling_delay=   1.2980n  targ= 902.7980n   trig= 901.5000n
 delay_avg=   1.3438n
 power=  -9.1087u  from= 100.0000p     to=   2.0000u
 pdp=  12.2400f

          ***** job concluded
 **info** dc convergence successful at Newton-Raphson method 

   *** parameter size =    7.200E-07 ***

 ******
 **testbench**

 ****** transient analysis tnom=  25.000 temp=  25.000 ******
 rising_delay=   1.3728n  targ= 801.9728n   trig= 800.6000n
 falling_delay=   1.2036n  targ= 902.7036n   trig= 901.5000n
 delay_avg=   1.2882n
 power=  -9.0743u  from= 100.0000p     to=   2.0000u
 pdp=  11.6892f

          ***** job concluded
 **info** dc convergence successful at Newton-Raphson method 

   *** parameter size =    7.300E-07 ***

 ******
 **testbench**

 ****** transient analysis tnom=  25.000 temp=  25.000 ******
 rising_delay=   1.3497n  targ= 801.9497n   trig= 800.6000n
 falling_delay=   1.1934n  targ= 902.6934n   trig= 901.5000n
 delay_avg=   1.2716n
 power=  -9.0935u  from= 100.0000p     to=   2.0000u
 pdp=  11.5630f

          ***** job concluded
 **info** dc convergence successful at Newton-Raphson method 

   *** parameter size =    7.400E-07 ***

 ******
 **testbench**

 ****** transient analysis tnom=  25.000 temp=  25.000 ******
 rising_delay=   1.3288n  targ= 801.9288n   trig= 800.6000n
 falling_delay=   1.1777n  targ= 902.6777n   trig= 901.5000n
 delay_avg=   1.2532n
 power=  -9.0898u  from= 100.0000p     to=   2.0000u
 pdp=  11.3917f

          ***** job concluded
 **info** dc convergence successful at Newton-Raphson method 

   *** parameter size =    7.500E-07 ***

 ******
 **testbench**

 ****** transient analysis tnom=  25.000 temp=  25.000 ******
 rising_delay=   1.3175n  targ= 801.9175n   trig= 800.6000n
 falling_delay=   1.1641n  targ= 902.6641n   trig= 901.5000n
 delay_avg=   1.2408n
 power=  -9.0960u  from= 100.0000p     to=   2.0000u
 pdp=  11.2861f

          ***** job concluded
 **info** dc convergence successful at Newton-Raphson method 

   *** parameter size =    7.600E-07 ***

 ******
 **testbench**

 ****** transient analysis tnom=  25.000 temp=  25.000 ******
 rising_delay=   1.3019n  targ= 801.9019n   trig= 800.6000n
 falling_delay=   1.1536n  targ= 902.6536n   trig= 901.5000n
 delay_avg=   1.2277n
 power=  -9.0738u  from= 100.0000p     to=   2.0000u
 pdp=  11.1402f

          ***** job concluded
 **info** dc convergence successful at Newton-Raphson method 

   *** parameter size =    7.700E-07 ***

 ******
 **testbench**

 ****** transient analysis tnom=  25.000 temp=  25.000 ******
 rising_delay=   1.2838n  targ= 801.8838n   trig= 800.6000n
 falling_delay=   1.1482n  targ= 902.6482n   trig= 901.5000n
 delay_avg=   1.2160n
 power=  -9.0519u  from= 100.0000p     to=   2.0000u
 pdp=  11.0068f

          ***** job concluded
 **info** dc convergence successful at Newton-Raphson method 

   *** parameter size =    7.800E-07 ***

 ******
 **testbench**

 ****** transient analysis tnom=  25.000 temp=  25.000 ******
 rising_delay=   1.2680n  targ= 801.8680n   trig= 800.6000n
 falling_delay=   1.1297n  targ= 902.6297n   trig= 901.5000n
 delay_avg=   1.1989n
 power=  -9.0770u  from= 100.0000p     to=   2.0000u
 pdp=  10.8820f

          ***** job concluded
 **info** dc convergence successful at Newton-Raphson method 

   *** parameter size =    7.900E-07 ***

 ******
 **testbench**

 ****** transient analysis tnom=  25.000 temp=  25.000 ******
 rising_delay=   1.2534n  targ= 801.8534n   trig= 800.6000n
 falling_delay=   1.1251n  targ= 902.6251n   trig= 901.5000n
 delay_avg=   1.1893n
 power=  -9.1245u  from= 100.0000p     to=   2.0000u
 pdp=  10.8517f

          ***** job concluded
 **info** dc convergence successful at Newton-Raphson method 

   *** parameter size =    8.000E-07 ***

 ******
 **testbench**

 ****** transient analysis tnom=  25.000 temp=  25.000 ******
 rising_delay=   1.2425n  targ= 801.8425n   trig= 800.6000n
 falling_delay=   1.1175n  targ= 902.6175n   trig= 901.5000n
 delay_avg=   1.1800n
 power=  -9.0949u  from= 100.0000p     to=   2.0000u
 pdp=  10.7317f

          ***** job concluded
 **info** dc convergence successful at Newton-Raphson method 

   *** parameter size =    8.100E-07 ***

 ******
 **testbench**

 ****** transient analysis tnom=  25.000 temp=  25.000 ******
 rising_delay=   1.2295n  targ= 801.8295n   trig= 800.6000n
 falling_delay=   1.1060n  targ= 902.6060n   trig= 901.5000n
 delay_avg=   1.1677n
 power=  -9.0599u  from= 100.0000p     to=   2.0000u
 pdp=  10.5796f

          ***** job concluded
 **info** dc convergence successful at Newton-Raphson method 

   *** parameter size =    8.200E-07 ***

 ******
 **testbench**

 ****** transient analysis tnom=  25.000 temp=  25.000 ******
 rising_delay=   1.2211n  targ= 801.8211n   trig= 800.6000n
 falling_delay=   1.0967n  targ= 902.5967n   trig= 901.5000n
 delay_avg=   1.1589n
 power=  -9.1082u  from= 100.0000p     to=   2.0000u
 pdp=  10.5557f

          ***** job concluded
 **info** dc convergence successful at Newton-Raphson method 

   *** parameter size =    8.300E-07 ***

 ******
 **testbench**

 ****** transient analysis tnom=  25.000 temp=  25.000 ******
 rising_delay=   1.2032n  targ= 801.8032n   trig= 800.6000n
 falling_delay=   1.0868n  targ= 902.5868n   trig= 901.5000n
 delay_avg=   1.1450n
 power=  -9.1136u  from= 100.0000p     to=   2.0000u
 pdp=  10.4349f

          ***** job concluded
 **info** dc convergence successful at Newton-Raphson method 

   *** parameter size =    8.400E-07 ***

 ******
 **testbench**

 ****** transient analysis tnom=  25.000 temp=  25.000 ******
 rising_delay=   1.1889n  targ= 801.7889n   trig= 800.6000n
 falling_delay=   1.0772n  targ= 902.5772n   trig= 901.5000n
 delay_avg=   1.1330n
 power=  -9.0642u  from= 100.0000p     to=   2.0000u
 pdp=  10.2701f

          ***** job concluded
 **info** dc convergence successful at Newton-Raphson method 

   *** parameter size =    8.500E-07 ***

 ******
 **testbench**

 ****** transient analysis tnom=  25.000 temp=  25.000 ******
 rising_delay=   1.1790n  targ= 801.7790n   trig= 800.6000n
 falling_delay=   1.0672n  targ= 902.5672n   trig= 901.5000n
 delay_avg=   1.1231n
 power=  -9.0737u  from= 100.0000p     to=   2.0000u
 pdp=  10.1904f

          ***** job concluded
 **info** dc convergence successful at Newton-Raphson method 

   *** parameter size =    8.600E-07 ***

 ******
 **testbench**

 ****** transient analysis tnom=  25.000 temp=  25.000 ******
 rising_delay=   1.1680n  targ= 801.7680n   trig= 800.6000n
 falling_delay=   1.1351n  targ= 902.6351n   trig= 901.5000n
 delay_avg=   1.1516n
 power=  -9.1039u  from= 100.0000p     to=   2.0000u
 pdp=  10.4837f

          ***** job concluded
 **info** dc convergence successful at Newton-Raphson method 

   *** parameter size =    8.700E-07 ***

 ******
 **testbench**

 ****** transient analysis tnom=  25.000 temp=  25.000 ******
 rising_delay=   1.1512n  targ= 801.7512n   trig= 800.6000n
 falling_delay=   1.0495n  targ= 902.5495n   trig= 901.5000n
 delay_avg=   1.1004n
 power=  -9.0767u  from= 100.0000p     to=   2.0000u
 pdp=   9.9878f

          ***** job concluded
 **info** dc convergence successful at Newton-Raphson method 

   *** parameter size =    8.800E-07 ***

 ******
 **testbench**

 ****** transient analysis tnom=  25.000 temp=  25.000 ******
 rising_delay=   1.1432n  targ= 801.7432n   trig= 800.6000n
 falling_delay=   1.0415n  targ= 902.5415n   trig= 901.5000n
 delay_avg=   1.0924n
 power=  -9.0734u  from= 100.0000p     to=   2.0000u
 pdp=   9.9116f

          ***** job concluded
 **info** dc convergence successful at Newton-Raphson method 

   *** parameter size =    8.900E-07 ***

 ******
 **testbench**

 ****** transient analysis tnom=  25.000 temp=  25.000 ******
 rising_delay=   1.1304n  targ= 801.7304n   trig= 800.6000n
 falling_delay=   1.0311n  targ= 902.5311n   trig= 901.5000n
 delay_avg=   1.0807n
 power=  -9.0947u  from= 100.0000p     to=   2.0000u
 pdp=   9.8289f

          ***** job concluded
 **info** dc convergence successful at Newton-Raphson method 

   *** parameter size =    9.000E-07 ***

 ******
 **testbench**

 ****** transient analysis tnom=  25.000 temp=  25.000 ******
 rising_delay=   1.1186n  targ= 801.7186n   trig= 800.6000n
 falling_delay=   1.0228n  targ= 902.5228n   trig= 901.5000n
 delay_avg=   1.0707n
 power=  -9.1076u  from= 100.0000p     to=   2.0000u
 pdp=   9.7516f

          ***** job concluded
 **info** dc convergence successful at Newton-Raphson method 

   *** parameter size =    9.100E-07 ***

 ******
 **testbench**

 ****** transient analysis tnom=  25.000 temp=  25.000 ******
 rising_delay=   1.1070n  targ= 801.7070n   trig= 800.6000n
 falling_delay=   1.0141n  targ= 902.5141n   trig= 901.5000n
 delay_avg=   1.0606n
 power=  -9.1168u  from= 100.0000p     to=   2.0000u
 pdp=   9.6691f

          ***** job concluded
 **info** dc convergence successful at Newton-Raphson method 

   *** parameter size =    9.200E-07 ***

 ******
 **testbench**

 ****** transient analysis tnom=  25.000 temp=  25.000 ******
 rising_delay=   1.0964n  targ= 801.6964n   trig= 800.6000n
 falling_delay=   1.0068n  targ= 902.5068n   trig= 901.5000n
 delay_avg=   1.0516n
 power=  -9.1258u  from= 100.0000p     to=   2.0000u
 pdp=   9.5962f

          ***** job concluded
 **info** dc convergence successful at Newton-Raphson method 

   *** parameter size =    9.300E-07 ***

 ******
 **testbench**

 ****** transient analysis tnom=  25.000 temp=  25.000 ******
 rising_delay=   1.0861n  targ= 801.6861n   trig= 800.6000n
 falling_delay= 998.8412p  targ= 902.4988n   trig= 901.5000n
 delay_avg=   1.0425n
 power=  -9.1027u  from= 100.0000p     to=   2.0000u
 pdp=   9.4892f

          ***** job concluded
 **info** dc convergence successful at Newton-Raphson method 

   *** parameter size =    9.400E-07 ***

 ******
 **testbench**

 ****** transient analysis tnom=  25.000 temp=  25.000 ******
 rising_delay=   1.0760n  targ= 801.6760n   trig= 800.6000n
 falling_delay= 993.9295p  targ= 902.4939n   trig= 901.5000n
 delay_avg=   1.0350n
 power=  -9.0835u  from= 100.0000p     to=   2.0000u
 pdp=   9.4011f

          ***** job concluded
 **info** dc convergence successful at Newton-Raphson method 

   *** parameter size =    9.500E-07 ***

 ******
 **testbench**

 ****** transient analysis tnom=  25.000 temp=  25.000 ******
 rising_delay=   1.0654n  targ= 801.6654n   trig= 800.6000n
 falling_delay= 983.2201p  targ= 902.4832n   trig= 901.5000n
 delay_avg=   1.0243n
 power=  -9.0836u  from= 100.0000p     to=   2.0000u
 pdp=   9.3045f

          ***** job concluded
 **info** dc convergence successful at Newton-Raphson method 

   *** parameter size =    9.600E-07 ***

 ******
 **testbench**

 ****** transient analysis tnom=  25.000 temp=  25.000 ******
 rising_delay=   1.0549n  targ= 801.6549n   trig= 800.6000n
 falling_delay= 976.1290p  targ= 902.4761n   trig= 901.5000n
 delay_avg=   1.0155n
 power=  -9.0919u  from= 100.0000p     to=   2.0000u
 pdp=   9.2331f

          ***** job concluded
 **info** dc convergence successful at Newton-Raphson method 

   *** parameter size =    9.700E-07 ***

 ******
 **testbench**

 ****** transient analysis tnom=  25.000 temp=  25.000 ******
 rising_delay=   1.0436n  targ= 801.6436n   trig= 800.6000n
 falling_delay= 970.2371p  targ= 902.4702n   trig= 901.5000n
 delay_avg=   1.0069n
 power=  -9.0937u  from= 100.0000p     to=   2.0000u
 pdp=   9.1566f

          ***** job concluded
 **info** dc convergence successful at Newton-Raphson method 

   *** parameter size =    9.800E-07 ***

 ******
 **testbench**

 ****** transient analysis tnom=  25.000 temp=  25.000 ******
 rising_delay=   1.0296n  targ= 801.6296n   trig= 800.6000n
 falling_delay= 963.2782p  targ= 902.4633n   trig= 901.5000n
 delay_avg= 996.4370p
 power=  -9.1099u  from= 100.0000p     to=   2.0000u
 pdp=   9.0774f

          ***** job concluded
 **info** dc convergence successful at Newton-Raphson method 

   *** parameter size =    9.900E-07 ***

 ******
 **testbench**

 ****** transient analysis tnom=  25.000 temp=  25.000 ******
 rising_delay=   1.0250n  targ= 801.6250n   trig= 800.6000n
 falling_delay= 957.0010p  targ= 902.4570n   trig= 901.5000n
 delay_avg= 990.9962p
 power=  -9.1049u  from= 100.0000p     to=   2.0000u
 pdp=   9.0229f

          ***** job concluded
 **info** dc convergence successful at Newton-Raphson method 

   *** parameter size =    1.000E-06 ***

 ******
 **testbench**

 ****** transient analysis tnom=  25.000 temp=  25.000 ******
 rising_delay=   1.0158n  targ= 801.6158n   trig= 800.6000n
 falling_delay= 950.4410p  targ= 902.4504n   trig= 901.5000n
 delay_avg= 983.1053p
 power=  -9.1452u  from= 100.0000p     to=   2.0000u
 pdp=   8.9907f

          ***** job concluded
 **info** dc convergence successful at Newton-Raphson method 

   *** parameter size =    1.010E-06 ***

 ******
 **testbench**

 ****** transient analysis tnom=  25.000 temp=  25.000 ******
 rising_delay= 999.9887p  targ= 801.6000n   trig= 800.6000n
 falling_delay=   1.0294n  targ= 902.5294n   trig= 901.5000n
 delay_avg=   1.0147n
 power=  -9.1438u  from= 100.0000p     to=   2.0000u
 pdp=   9.2783f

          ***** job concluded
 **info** dc convergence successful at Newton-Raphson method 

   *** parameter size =    1.020E-06 ***

 ******
 **testbench**

 ****** transient analysis tnom=  25.000 temp=  25.000 ******
 rising_delay= 998.4272p  targ= 801.5984n   trig= 800.6000n
 falling_delay= 936.4163p  targ= 902.4364n   trig= 901.5000n
 delay_avg= 967.4217p
 power=  -9.1508u  from= 100.0000p     to=   2.0000u
 pdp=   8.8527f

          ***** job concluded
 **info** dc convergence successful at Newton-Raphson method 

   *** parameter size =    1.030E-06 ***

 ******
 **testbench**

 ****** transient analysis tnom=  25.000 temp=  25.000 ******
 rising_delay= 989.3944p  targ= 801.5894n   trig= 800.6000n
 falling_delay= 932.5823p  targ= 902.4326n   trig= 901.5000n
 delay_avg= 960.9883p
 power=  -9.1261u  from= 100.0000p     to=   2.0000u
 pdp=   8.7701f

          ***** job concluded
 **info** dc convergence successful at Newton-Raphson method 

   *** parameter size =    1.040E-06 ***

 ******
 **testbench**

 ****** transient analysis tnom=  25.000 temp=  25.000 ******
 rising_delay= 979.3325p  targ= 801.5793n   trig= 800.6000n
 falling_delay= 925.2720p  targ= 902.4253n   trig= 901.5000n
 delay_avg= 952.3023p
 power=  -9.1405u  from= 100.0000p     to=   2.0000u
 pdp=   8.7045f

          ***** job concluded
 **info** dc convergence successful at Newton-Raphson method 

   *** parameter size =    1.050E-06 ***

 ******
 **testbench**

 ****** transient analysis tnom=  25.000 temp=  25.000 ******
 rising_delay= 970.8562p  targ= 801.5709n   trig= 800.6000n
 falling_delay= 995.0154p  targ= 902.4950n   trig= 901.5000n
 delay_avg= 982.9358p
 power=  -9.2165u  from= 100.0000p     to=   2.0000u
 pdp=   9.0593f

          ***** job concluded
 **info** dc convergence successful at Newton-Raphson method 

   *** parameter size =    1.060E-06 ***

 ******
 **testbench**

 ****** transient analysis tnom=  25.000 temp=  25.000 ******
 rising_delay= 956.6901p  targ= 801.5567n   trig= 800.6000n
 falling_delay= 906.8411p  targ= 902.4068n   trig= 901.5000n
 delay_avg= 931.7656p
 power=  -9.1761u  from= 100.0000p     to=   2.0000u
 pdp=   8.5500f

          ***** job concluded
 **info** dc convergence successful at Newton-Raphson method 

   *** parameter size =    1.070E-06 ***

 ******
 **testbench**

 ****** transient analysis tnom=  25.000 temp=  25.000 ******
 rising_delay= 953.7748p  targ= 801.5538n   trig= 800.6000n
 falling_delay= 909.3575p  targ= 902.4094n   trig= 901.5000n
 delay_avg= 931.5662p
 power=  -9.1767u  from= 100.0000p     to=   2.0000u
 pdp=   8.5487f

          ***** job concluded
 **info** dc convergence successful at Newton-Raphson method 

   *** parameter size =    1.080E-06 ***

 ******
 **testbench**

 ****** transient analysis tnom=  25.000 temp=  25.000 ******
 rising_delay= 944.3565p  targ= 801.5444n   trig= 800.6000n
 falling_delay= 972.6332p  targ= 902.4726n   trig= 901.5000n
 delay_avg= 958.4949p
 power=  -9.1879u  from= 100.0000p     to=   2.0000u
 pdp=   8.8065f

          ***** job concluded
 **info** dc convergence successful at Newton-Raphson method 

   *** parameter size =    1.090E-06 ***

 ******
 **testbench**

 ****** transient analysis tnom=  25.000 temp=  25.000 ******
 rising_delay= 937.4230p  targ= 801.5374n   trig= 800.6000n
 falling_delay= 897.2319p  targ= 902.3972n   trig= 901.5000n
 delay_avg= 917.3274p
 power=  -9.1440u  from= 100.0000p     to=   2.0000u
 pdp=   8.3881f

          ***** job concluded
 **info** dc convergence successful at Newton-Raphson method 

   *** parameter size =    1.100E-06 ***

 ******
 **testbench**

 ****** transient analysis tnom=  25.000 temp=  25.000 ******
 rising_delay= 929.2653p  targ= 801.5293n   trig= 800.6000n
 falling_delay= 967.1047p  targ= 902.4671n   trig= 901.5000n
 delay_avg= 948.1850p
 power=  -9.1911u  from= 100.0000p     to=   2.0000u
 pdp=   8.7149f

          ***** job concluded
 **info** dc convergence successful at Newton-Raphson method 

   *** parameter size =    1.110E-06 ***

 ******
 **testbench**

 ****** transient analysis tnom=  25.000 temp=  25.000 ******
 rising_delay= 921.2304p  targ= 801.5212n   trig= 800.6000n
 falling_delay= 958.1720p  targ= 902.4582n   trig= 901.5000n
 delay_avg= 939.7012p
 power=  -9.1671u  from= 100.0000p     to=   2.0000u
 pdp=   8.6144f

          ***** job concluded
 **info** dc convergence successful at Newton-Raphson method 

   *** parameter size =    1.120E-06 ***

 ******
 **testbench**

 ****** transient analysis tnom=  25.000 temp=  25.000 ******
 rising_delay= 911.6886p  targ= 801.5117n   trig= 800.6000n
 falling_delay= 879.5743p  targ= 902.3796n   trig= 901.5000n
 delay_avg= 895.6315p
 power=  -9.2013u  from= 100.0000p     to=   2.0000u
 pdp=   8.2410f

          ***** job concluded
 **info** dc convergence successful at Newton-Raphson method 

   *** parameter size =    1.130E-06 ***

 ******
 **testbench**

 ****** transient analysis tnom=  25.000 temp=  25.000 ******
 rising_delay= 907.1254p  targ= 801.5071n   trig= 800.6000n
 falling_delay= 876.6546p  targ= 902.3767n   trig= 901.5000n
 delay_avg= 891.8900p
 power=  -9.1460u  from= 100.0000p     to=   2.0000u
 pdp=   8.1572f

          ***** job concluded
 **info** dc convergence successful at Newton-Raphson method 

   *** parameter size =    1.140E-06 ***

 ******
 **testbench**

 ****** transient analysis tnom=  25.000 temp=  25.000 ******
 rising_delay= 896.7357p  targ= 801.4967n   trig= 800.6000n
 falling_delay= 944.2556p  targ= 902.4443n   trig= 901.5000n
 delay_avg= 920.4956p
 power=  -9.2298u  from= 100.0000p     to=   2.0000u
 pdp=   8.4960f

          ***** job concluded
 **info** dc convergence successful at Newton-Raphson method 

   *** parameter size =    1.150E-06 ***

 ******
 **testbench**

 ****** transient analysis tnom=  25.000 temp=  25.000 ******
 rising_delay= 894.6080p  targ= 801.4946n   trig= 800.6000n
 falling_delay= 862.1311p  targ= 902.3621n   trig= 901.5000n
 delay_avg= 878.3695p
 power=  -9.1882u  from= 100.0000p     to=   2.0000u
 pdp=   8.0706f

          ***** job concluded
 **info** dc convergence successful at Newton-Raphson method 

   *** parameter size =    1.160E-06 ***

 ******
 **testbench**

 ****** transient analysis tnom=  25.000 temp=  25.000 ******
 rising_delay= 887.3062p  targ= 801.4873n   trig= 800.6000n
 falling_delay= 860.5268p  targ= 902.3605n   trig= 901.5000n
 delay_avg= 873.9165p
 power=  -9.1295u  from= 100.0000p     to=   2.0000u
 pdp=   7.9784f

          ***** job concluded
 **info** dc convergence successful at Newton-Raphson method 

   *** parameter size =    1.170E-06 ***

 ******
 **testbench**

 ****** transient analysis tnom=  25.000 temp=  25.000 ******
 rising_delay= 878.4868p  targ= 801.4785n   trig= 800.6000n
 falling_delay= 927.1499p  targ= 902.4271n   trig= 901.5000n
 delay_avg= 902.8184p
 power=  -9.1904u  from= 100.0000p     to=   2.0000u
 pdp=   8.2973f

          ***** job concluded
 **info** dc convergence successful at Newton-Raphson method 

   *** parameter size =    1.180E-06 ***

 ******
 **testbench**

 ****** transient analysis tnom=  25.000 temp=  25.000 ******
 rising_delay= 868.5998p  targ= 801.4686n   trig= 800.6000n
 falling_delay= 840.5168p  targ= 902.3405n   trig= 901.5000n
 delay_avg= 854.5583p
 power=  -9.1601u  from= 100.0000p     to=   2.0000u
 pdp=   7.8278f

          ***** job concluded
 **info** dc convergence successful at Newton-Raphson method 

   *** parameter size =    1.190E-06 ***

 ******
 **testbench**

 ****** transient analysis tnom=  25.000 temp=  25.000 ******
 rising_delay= 864.3764p  targ= 801.4644n   trig= 800.6000n
 falling_delay= 941.8883p  targ= 902.4419n   trig= 901.5000n
 delay_avg= 903.1323p
 power=  -9.2407u  from= 100.0000p     to=   2.0000u
 pdp=   8.3456f

          ***** job concluded
 **info** dc convergence successful at Newton-Raphson method 

   *** parameter size =    1.200E-06 ***

 ******
 **testbench**

 ****** transient analysis tnom=  25.000 temp=  25.000 ******
 rising_delay= 856.3531p  targ= 801.4564n   trig= 800.6000n
 falling_delay= 836.4025p  targ= 902.3364n   trig= 901.5000n
 delay_avg= 846.3778p
 power=  -9.1985u  from= 100.0000p     to=   2.0000u
 pdp=   7.7854f

          ***** job concluded
 **info** dc convergence successful at Newton-Raphson method 

   *** parameter size =    1.210E-06 ***

 ******
 **testbench**

 ****** transient analysis tnom=  25.000 temp=  25.000 ******
 rising_delay= 850.7950p  targ= 801.4508n   trig= 800.6000n
 falling_delay= 905.8294p  targ= 902.4058n   trig= 901.5000n
 delay_avg= 878.3122p
 power=  -9.2122u  from= 100.0000p     to=   2.0000u
 pdp=   8.0912f

          ***** job concluded
 **info** dc convergence successful at Newton-Raphson method 

   *** parameter size =    1.220E-06 ***

 ******
 **testbench**

 ****** transient analysis tnom=  25.000 temp=  25.000 ******
 rising_delay= 843.5764p  targ= 801.4436n   trig= 800.6000n
 falling_delay= 833.5447p  targ= 902.3335n   trig= 901.5000n
 delay_avg= 838.5605p
 power=  -9.2215u  from= 100.0000p     to=   2.0000u
 pdp=   7.7328f

          ***** job concluded
 **info** dc convergence successful at Newton-Raphson method 

   *** parameter size =    1.230E-06 ***

 ******
 **testbench**

 ****** transient analysis tnom=  25.000 temp=  25.000 ******
 rising_delay= 839.2792p  targ= 801.4393n   trig= 800.6000n
 falling_delay= 905.1726p  targ= 902.4052n   trig= 901.5000n
 delay_avg= 872.2259p
 power=  -9.1809u  from= 100.0000p     to=   2.0000u
 pdp=   8.0078f

          ***** job concluded
 **info** dc convergence successful at Newton-Raphson method 

   *** parameter size =    1.240E-06 ***

 ******
 **testbench**

 ****** transient analysis tnom=  25.000 temp=  25.000 ******
 rising_delay= 831.4895p  targ= 801.4315n   trig= 800.6000n
 falling_delay= 901.1912p  targ= 902.4012n   trig= 901.5000n
 delay_avg= 866.3404p
 power=  -9.2171u  from= 100.0000p     to=   2.0000u
 pdp=   7.9852f

          ***** job concluded
 **info** dc convergence successful at Newton-Raphson method 

   *** parameter size =    1.250E-06 ***

 ******
 **testbench**

 ****** transient analysis tnom=  25.000 temp=  25.000 ******
 rising_delay= 828.2239p  targ= 801.4282n   trig= 800.6000n
 falling_delay= 819.1337p  targ= 902.3191n   trig= 901.5000n
 delay_avg= 823.6788p
 power=  -9.1783u  from= 100.0000p     to=   2.0000u
 pdp=   7.5600f

          ***** job concluded
 **info** dc convergence successful at Newton-Raphson method 

   *** parameter size =    1.260E-06 ***

 ******
 **testbench**

 ****** transient analysis tnom=  25.000 temp=  25.000 ******
 rising_delay= 820.3642p  targ= 801.4204n   trig= 800.6000n
 falling_delay= 816.2872p  targ= 902.3163n   trig= 901.5000n
 delay_avg= 818.3257p
 power=  -9.1656u  from= 100.0000p     to=   2.0000u
 pdp=   7.5004f

          ***** job concluded
 **info** dc convergence successful at Newton-Raphson method 

   *** parameter size =    1.270E-06 ***

 ******
 **testbench**

 ****** transient analysis tnom=  25.000 temp=  25.000 ******
 rising_delay= 815.9490p  targ= 801.4159n   trig= 800.6000n
 falling_delay= 811.0562p  targ= 902.3111n   trig= 901.5000n
 delay_avg= 813.5026p
 power=  -9.1842u  from= 100.0000p     to=   2.0000u
 pdp=   7.4714f

          ***** job concluded
 **info** dc convergence successful at Newton-Raphson method 

   *** parameter size =    1.280E-06 ***

 ******
 **testbench**

 ****** transient analysis tnom=  25.000 temp=  25.000 ******
 rising_delay= 809.3245p  targ= 801.4093n   trig= 800.6000n
 falling_delay= 799.3641p  targ= 902.2994n   trig= 901.5000n
 delay_avg= 804.3443p
 power=  -9.1173u  from= 100.0000p     to=   2.0000u
 pdp=   7.3334f

          ***** job concluded
 **info** dc convergence successful at Newton-Raphson method 

   *** parameter size =    1.290E-06 ***

 ******
 **testbench**

 ****** transient analysis tnom=  25.000 temp=  25.000 ******
 rising_delay= 804.5050p  targ= 801.4045n   trig= 800.6000n
 falling_delay= 874.7119p  targ= 902.3747n   trig= 901.5000n
 delay_avg= 839.6085p
 power=  -9.2630u  from= 100.0000p     to=   2.0000u
 pdp=   7.7773f

          ***** job concluded
 **info** dc convergence successful at Newton-Raphson method 

   *** parameter size =    1.300E-06 ***

 ******
 **testbench**

 ****** transient analysis tnom=  25.000 temp=  25.000 ******
 rising_delay= 799.0190p  targ= 801.3990n   trig= 800.6000n
 falling_delay= 800.2516p  targ= 902.3003n   trig= 901.5000n
 delay_avg= 799.6353p
 power=  -9.1267u  from= 100.0000p     to=   2.0000u
 pdp=   7.2980f

          ***** job concluded
 **info** dc convergence successful at Newton-Raphson method 

   *** parameter size =    1.310E-06 ***

 ******
 **testbench**

 ****** transient analysis tnom=  25.000 temp=  25.000 ******
 rising_delay= 793.2266p  targ= 801.3932n   trig= 800.6000n
 falling_delay= 796.4938p  targ= 902.2965n   trig= 901.5000n
 delay_avg= 794.8602p
 power=  -9.2324u  from= 100.0000p     to=   2.0000u
 pdp=   7.3385f

          ***** job concluded
 **info** dc convergence successful at Newton-Raphson method 

   *** parameter size =    1.320E-06 ***

 ******
 **testbench**

 ****** transient analysis tnom=  25.000 temp=  25.000 ******
 rising_delay= 787.0649p  targ= 801.3871n   trig= 800.6000n
 falling_delay= 865.8484p  targ= 902.3658n   trig= 901.5000n
 delay_avg= 826.4567p
 power=  -9.2753u  from= 100.0000p     to=   2.0000u
 pdp=   7.6656f

          ***** job concluded
 **info** dc convergence successful at Newton-Raphson method 

   *** parameter size =    1.330E-06 ***

 ******
 **testbench**

 ****** transient analysis tnom=  25.000 temp=  25.000 ******
 rising_delay= 782.3738p  targ= 801.3824n   trig= 800.6000n
 falling_delay= 787.9355p  targ= 902.2879n   trig= 901.5000n
 delay_avg= 785.1546p
 power=  -9.2858u  from= 100.0000p     to=   2.0000u
 pdp=   7.2908f

          ***** job concluded
 **info** dc convergence successful at Newton-Raphson method 

   *** parameter size =    1.340E-06 ***

 ******
 **testbench**

 ****** transient analysis tnom=  25.000 temp=  25.000 ******
 rising_delay= 776.9166p  targ= 801.3769n   trig= 800.6000n
 falling_delay= 783.7133p  targ= 902.2837n   trig= 901.5000n
 delay_avg= 780.3150p
 power=  -9.2359u  from= 100.0000p     to=   2.0000u
 pdp=   7.2069f

          ***** job concluded
 **info** dc convergence successful at Newton-Raphson method 

   *** parameter size =    1.350E-06 ***

 ******
 **testbench**

 ****** transient analysis tnom=  25.000 temp=  25.000 ******
 rising_delay= 772.7922p  targ= 801.3728n   trig= 800.6000n
 falling_delay= 871.5274p  targ= 902.3715n   trig= 901.5000n
 delay_avg= 822.1598p
 power=  -9.3003u  from= 100.0000p     to=   2.0000u
 pdp=   7.6463f

          ***** job concluded
 **info** dc convergence successful at Newton-Raphson method 

   *** parameter size =    1.360E-06 ***

 ******
 **testbench**

 ****** transient analysis tnom=  25.000 temp=  25.000 ******
 rising_delay= 767.0799p  targ= 801.3671n   trig= 800.6000n
 falling_delay= 852.4183p  targ= 902.3524n   trig= 901.5000n
 delay_avg= 809.7491p
 power=  -9.2355u  from= 100.0000p     to=   2.0000u
 pdp=   7.4785f

          ***** job concluded
 **info** dc convergence successful at Newton-Raphson method 

   *** parameter size =    1.370E-06 ***

 ******
 **testbench**

 ****** transient analysis tnom=  25.000 temp=  25.000 ******
 rising_delay= 762.2193p  targ= 801.3622n   trig= 800.6000n
 falling_delay= 864.0884p  targ= 902.3641n   trig= 901.5000n
 delay_avg= 813.1539p
 power=  -9.1971u  from= 100.0000p     to=   2.0000u
 pdp=   7.4786f

          ***** job concluded
 **info** dc convergence successful at Newton-Raphson method 

   *** parameter size =    1.380E-06 ***

 ******
 **testbench**

 ****** transient analysis tnom=  25.000 temp=  25.000 ******
 rising_delay= 756.7883p  targ= 801.3568n   trig= 800.6000n
 falling_delay= 768.3075p  targ= 902.2683n   trig= 901.5000n
 delay_avg= 762.5479p
 power=  -9.1798u  from= 100.0000p     to=   2.0000u
 pdp=   7.0001f

          ***** job concluded
 **info** dc convergence successful at Newton-Raphson method 

   *** parameter size =    1.390E-06 ***

 ******
 **testbench**

 ****** transient analysis tnom=  25.000 temp=  25.000 ******
 rising_delay= 752.0829p  targ= 801.3521n   trig= 800.6000n
 falling_delay= 763.5951p  targ= 902.2636n   trig= 901.5000n
 delay_avg= 757.8390p
 power=  -9.1736u  from= 100.0000p     to=   2.0000u
 pdp=   6.9521f

          ***** job concluded
 **info** dc convergence successful at Newton-Raphson method 

   *** parameter size =    1.400E-06 ***

 ******
 **testbench**

 ****** transient analysis tnom=  25.000 temp=  25.000 ******
 rising_delay= 747.0010p  targ= 801.3470n   trig= 800.6000n
 falling_delay= 760.2039p  targ= 902.2602n   trig= 901.5000n
 delay_avg= 753.6025p
 power=  -9.1659u  from= 100.0000p     to=   2.0000u
 pdp=   6.9074f

          ***** job concluded
 **info** dc convergence successful at Newton-Raphson method 

   *** parameter size =    1.410E-06 ***

 ******
 **testbench**

 ****** transient analysis tnom=  25.000 temp=  25.000 ******
 rising_delay= 742.1583p  targ= 801.3422n   trig= 800.6000n
 falling_delay= 756.8670p  targ= 902.2569n   trig= 901.5000n
 delay_avg= 749.5127p
 power=  -9.1912u  from= 100.0000p     to=   2.0000u
 pdp=   6.8889f

          ***** job concluded
 **info** dc convergence successful at Newton-Raphson method 

   *** parameter size =    1.420E-06 ***

 ******
 **testbench**

 ****** transient analysis tnom=  25.000 temp=  25.000 ******
 rising_delay= 738.1063p  targ= 801.3381n   trig= 800.6000n
 falling_delay= 755.9966p  targ= 902.2560n   trig= 901.5000n
 delay_avg= 747.0515p
 power=  -9.2164u  from= 100.0000p     to=   2.0000u
 pdp=   6.8851f

          ***** job concluded
 **info** dc convergence successful at Newton-Raphson method 

   *** parameter size =    1.430E-06 ***

 ******
 **testbench**

 ****** transient analysis tnom=  25.000 temp=  25.000 ******
 rising_delay= 733.4154p  targ= 801.3334n   trig= 800.6000n
 falling_delay= 753.3172p  targ= 902.2533n   trig= 901.5000n
 delay_avg= 743.3663p
 power=  -9.2400u  from= 100.0000p     to=   2.0000u
 pdp=   6.8687f

          ***** job concluded
 **info** dc convergence successful at Newton-Raphson method 

   *** parameter size =    1.440E-06 ***

 ******
 **testbench**

 ****** transient analysis tnom=  25.000 temp=  25.000 ******
 rising_delay= 728.0887p  targ= 801.3281n   trig= 800.6000n
 falling_delay= 825.0083p  targ= 902.3250n   trig= 901.5000n
 delay_avg= 776.5485p
 power=  -9.2550u  from= 100.0000p     to=   2.0000u
 pdp=   7.1869f

          ***** job concluded
 **info** dc convergence successful at Newton-Raphson method 

   *** parameter size =    1.450E-06 ***

 ******
 **testbench**

 ****** transient analysis tnom=  25.000 temp=  25.000 ******
 rising_delay= 724.6386p  targ= 801.3246n   trig= 800.6000n
 falling_delay= 817.1160p  targ= 902.3171n   trig= 901.5000n
 delay_avg= 770.8773p
 power=  -9.2102u  from= 100.0000p     to=   2.0000u
 pdp=   7.0999f

          ***** job concluded
 **info** dc convergence successful at Newton-Raphson method 

   *** parameter size =    1.460E-06 ***

 ******
 **testbench**

 ****** transient analysis tnom=  25.000 temp=  25.000 ******
 rising_delay= 719.7950p  targ= 801.3198n   trig= 800.6000n
 falling_delay= 741.0619p  targ= 902.2411n   trig= 901.5000n
 delay_avg= 730.4285p
 power=  -9.2054u  from= 100.0000p     to=   2.0000u
 pdp=   6.7239f

          ***** job concluded
 **info** dc convergence successful at Newton-Raphson method 

   *** parameter size =    1.470E-06 ***

 ******
 **testbench**

 ****** transient analysis tnom=  25.000 temp=  25.000 ******
 rising_delay= 715.2964p  targ= 801.3153n   trig= 800.6000n
 falling_delay= 807.6709p  targ= 902.3077n   trig= 901.5000n
 delay_avg= 761.4836p
 power=  -9.2353u  from= 100.0000p     to=   2.0000u
 pdp=   7.0325f

          ***** job concluded
 **info** dc convergence successful at Newton-Raphson method 

   *** parameter size =    1.480E-06 ***

 ******
 **testbench**

 ****** transient analysis tnom=  25.000 temp=  25.000 ******
 rising_delay= 709.6375p  targ= 801.3096n   trig= 800.6000n
 falling_delay= 737.7428p  targ= 902.2377n   trig= 901.5000n
 delay_avg= 723.6901p
 power=  -9.2307u  from= 100.0000p     to=   2.0000u
 pdp=   6.6801f

          ***** job concluded
 **info** dc convergence successful at Newton-Raphson method 

   *** parameter size =    1.490E-06 ***

 ******
 **testbench**

 ****** transient analysis tnom=  25.000 temp=  25.000 ******
 rising_delay= 706.8971p  targ= 801.3069n   trig= 800.6000n
 falling_delay= 801.0668p  targ= 902.3011n   trig= 901.5000n
 delay_avg= 753.9819p
 power=  -9.2184u  from= 100.0000p     to=   2.0000u
 pdp=   6.9505f

          ***** job concluded
 **info** dc convergence successful at Newton-Raphson method 

   *** parameter size =    1.500E-06 ***

 ******
 **testbench**

 ****** transient analysis tnom=  25.000 temp=  25.000 ******
 rising_delay= 702.7965p  targ= 801.3028n   trig= 800.6000n
 falling_delay= 730.5828p  targ= 902.2306n   trig= 901.5000n
 delay_avg= 716.6896p
 power=  -9.1993u  from= 100.0000p     to=   2.0000u
 pdp=   6.5930f

          ***** job concluded
 **info** dc convergence successful at Newton-Raphson method 

   *** parameter size =    1.510E-06 ***

 ******
 **testbench**

 ****** transient analysis tnom=  25.000 temp=  25.000 ******
 rising_delay= 697.9918p  targ= 801.2980n   trig= 800.6000n
 falling_delay= 729.4347p  targ= 902.2294n   trig= 901.5000n
 delay_avg= 713.7132p
 power=  -9.1954u  from= 100.0000p     to=   2.0000u
 pdp=   6.5629f

          ***** job concluded
 **info** dc convergence successful at Newton-Raphson method 

   *** parameter size =    1.520E-06 ***

 ******
 **testbench**

 ****** transient analysis tnom=  25.000 temp=  25.000 ******
 rising_delay= 695.1526p  targ= 801.2952n   trig= 800.6000n
 falling_delay= 724.2819p  targ= 902.2243n   trig= 901.5000n
 delay_avg= 709.7173p
 power=  -9.2049u  from= 100.0000p     to=   2.0000u
 pdp=   6.5329f

          ***** job concluded
 **info** dc convergence successful at Newton-Raphson method 

   *** parameter size =    1.530E-06 ***

 ******
 **testbench**

 ****** transient analysis tnom=  25.000 temp=  25.000 ******
 rising_delay= 691.5125p  targ= 801.2915n   trig= 800.6000n
 falling_delay= 790.8097p  targ= 902.2908n   trig= 901.5000n
 delay_avg= 741.1611p
 power=  -9.2730u  from= 100.0000p     to=   2.0000u
 pdp=   6.8728f

          ***** job concluded
 **info** dc convergence successful at Newton-Raphson method 

   *** parameter size =    1.540E-06 ***

 ******
 **testbench**

 ****** transient analysis tnom=  25.000 temp=  25.000 ******
 rising_delay= 687.8966p  targ= 801.2879n   trig= 800.6000n
 falling_delay= 720.8541p  targ= 902.2209n   trig= 901.5000n
 delay_avg= 704.3753p
 power=  -9.1502u  from= 100.0000p     to=   2.0000u
 pdp=   6.4452f

          ***** job concluded
 **info** dc convergence successful at Newton-Raphson method 

   *** parameter size =    1.550E-06 ***

 ******
 **testbench**

 ****** transient analysis tnom=  25.000 temp=  25.000 ******
 rising_delay= 684.7673p  targ= 801.2848n   trig= 800.6000n
 falling_delay= 717.4878p  targ= 902.2175n   trig= 901.5000n
 delay_avg= 701.1276p
 power=  -9.2238u  from= 100.0000p     to=   2.0000u
 pdp=   6.4670f

          ***** job concluded
 **info** dc convergence successful at Newton-Raphson method 

   *** parameter size =    1.560E-06 ***

 ******
 **testbench**

 ****** transient analysis tnom=  25.000 temp=  25.000 ******
 rising_delay= 679.5602p  targ= 801.2796n   trig= 800.6000n
 falling_delay= 712.9494p  targ= 902.2129n   trig= 901.5000n
 delay_avg= 696.2548p
 power=  -9.2417u  from= 100.0000p     to=   2.0000u
 pdp=   6.4346f

          ***** job concluded
 **info** dc convergence successful at Newton-Raphson method 

   *** parameter size =    1.570E-06 ***

 ******
 **testbench**

 ****** transient analysis tnom=  25.000 temp=  25.000 ******
 rising_delay= 676.2085p  targ= 801.2762n   trig= 800.6000n
 falling_delay= 782.0272p  targ= 902.2820n   trig= 901.5000n
 delay_avg= 729.1178p
 power=  -9.3233u  from= 100.0000p     to=   2.0000u
 pdp=   6.7978f

          ***** job concluded
 **info** dc convergence successful at Newton-Raphson method 

   *** parameter size =    1.580E-06 ***

 ******
 **testbench**

 ****** transient analysis tnom=  25.000 temp=  25.000 ******
 rising_delay= 671.6393p  targ= 801.2716n   trig= 800.6000n
 falling_delay= 779.7617p  targ= 902.2798n   trig= 901.5000n
 delay_avg= 725.7005p
 power=  -9.3748u  from= 100.0000p     to=   2.0000u
 pdp=   6.8033f

          ***** job concluded
 **info** dc convergence successful at Newton-Raphson method 

   *** parameter size =    1.590E-06 ***

 ******
 **testbench**

 ****** transient analysis tnom=  25.000 temp=  25.000 ******
 rising_delay= 667.7062p  targ= 801.2677n   trig= 800.6000n
 falling_delay= 704.4052p  targ= 902.2044n   trig= 901.5000n
 delay_avg= 686.0557p
 power=  -9.3048u  from= 100.0000p     to=   2.0000u
 pdp=   6.3836f

          ***** job concluded
 **info** dc convergence successful at Newton-Raphson method 

   *** parameter size =    1.600E-06 ***

 ******
 **testbench**

 ****** transient analysis tnom=  25.000 temp=  25.000 ******
 rising_delay= 665.5505p  targ= 801.2656n   trig= 800.6000n
 falling_delay= 776.2105p  targ= 902.2762n   trig= 901.5000n
 delay_avg= 720.8805p
 power=  -9.3037u  from= 100.0000p     to=   2.0000u
 pdp=   6.7068f

          ***** job concluded
 **info** dc convergence successful at Newton-Raphson method 

   *** parameter size =    1.610E-06 ***

 ******
 **testbench**

 ****** transient analysis tnom=  25.000 temp=  25.000 ******
 rising_delay= 661.4584p  targ= 801.2615n   trig= 800.6000n
 falling_delay= 771.1763p  targ= 902.2712n   trig= 901.5000n
 delay_avg= 716.3174p
 power=  -9.2982u  from= 100.0000p     to=   2.0000u
 pdp=   6.6605f

          ***** job concluded
 **info** dc convergence successful at Newton-Raphson method 

   *** parameter size =    1.620E-06 ***

 ******
 **testbench**

 ****** transient analysis tnom=  25.000 temp=  25.000 ******
 rising_delay= 658.7642p  targ= 801.2588n   trig= 800.6000n
 falling_delay= 770.3467p  targ= 902.2703n   trig= 901.5000n
 delay_avg= 714.5555p
 power=  -9.2875u  from= 100.0000p     to=   2.0000u
 pdp=   6.6364f

          ***** job concluded
 **info** dc convergence successful at Newton-Raphson method 

   *** parameter size =    1.630E-06 ***

 ******
 **testbench**

 ****** transient analysis tnom=  25.000 temp=  25.000 ******
 rising_delay= 656.7397p  targ= 801.2567n   trig= 800.6000n
 falling_delay= 694.8915p  targ= 902.1949n   trig= 901.5000n
 delay_avg= 675.8156p
 power=  -9.2571u  from= 100.0000p     to=   2.0000u
 pdp=   6.2561f

          ***** job concluded
 **info** dc convergence successful at Newton-Raphson method 

   *** parameter size =    1.640E-06 ***

 ******
 **testbench**

 ****** transient analysis tnom=  25.000 temp=  25.000 ******
 rising_delay= 651.9565p  targ= 801.2520n   trig= 800.6000n
 falling_delay= 765.1022p  targ= 902.2651n   trig= 901.5000n
 delay_avg= 708.5294p
 power=  -9.3406u  from= 100.0000p     to=   2.0000u
 pdp=   6.6181f

          ***** job concluded
 **info** dc convergence successful at Newton-Raphson method 

   *** parameter size =    1.650E-06 ***

 ******
 **testbench**

 ****** transient analysis tnom=  25.000 temp=  25.000 ******
 rising_delay= 648.2078p  targ= 801.2482n   trig= 800.6000n
 falling_delay= 761.3861p  targ= 902.2614n   trig= 901.5000n
 delay_avg= 704.7970p
 power=  -9.3566u  from= 100.0000p     to=   2.0000u
 pdp=   6.5945f

          ***** job concluded
 **info** dc convergence successful at Newton-Raphson method 

   *** parameter size =    1.660E-06 ***

 ******
 **testbench**

 ****** transient analysis tnom=  25.000 temp=  25.000 ******
 rising_delay= 644.2777p  targ= 801.2443n   trig= 800.6000n
 falling_delay= 758.5958p  targ= 902.2586n   trig= 901.5000n
 delay_avg= 701.4367p
 power=  -9.3339u  from= 100.0000p     to=   2.0000u
 pdp=   6.5471f

          ***** job concluded
 **info** dc convergence successful at Newton-Raphson method 

   *** parameter size =    1.670E-06 ***

 ******
 **testbench**

 ****** transient analysis tnom=  25.000 temp=  25.000 ******
 rising_delay= 643.2515p  targ= 801.2433n   trig= 800.6000n
 falling_delay= 774.3282p  targ= 902.2743n   trig= 901.5000n
 delay_avg= 708.7898p
 power=  -9.3567u  from= 100.0000p     to=   2.0000u
 pdp=   6.6319f

          ***** job concluded
 **info** dc convergence successful at Newton-Raphson method 

   *** parameter size =    1.680E-06 ***

 ******
 **testbench**

 ****** transient analysis tnom=  25.000 temp=  25.000 ******
 rising_delay= 638.7476p  targ= 801.2387n   trig= 800.6000n
 falling_delay= 755.0646p  targ= 902.2551n   trig= 901.5000n
 delay_avg= 696.9061p
 power=  -9.2962u  from= 100.0000p     to=   2.0000u
 pdp=   6.4786f

          ***** job concluded
 **info** dc convergence successful at Newton-Raphson method 

   *** parameter size =    1.690E-06 ***

 ******
 **testbench**

 ****** transient analysis tnom=  25.000 temp=  25.000 ******
 rising_delay= 635.3188p  targ= 801.2353n   trig= 800.6000n
 falling_delay= 751.7596p  targ= 902.2518n   trig= 901.5000n
 delay_avg= 693.5392p
 power=  -9.3457u  from= 100.0000p     to=   2.0000u
 pdp=   6.4816f

          ***** job concluded
 **info** dc convergence successful at Newton-Raphson method 

   *** parameter size =    1.700E-06 ***

 ******
 **testbench**

 ****** transient analysis tnom=  25.000 temp=  25.000 ******
 rising_delay= 630.5917p  targ= 801.2306n   trig= 800.6000n
 falling_delay= 680.8188p  targ= 902.1808n   trig= 901.5000n
 delay_avg= 655.7052p
 power=  -9.2929u  from= 100.0000p     to=   2.0000u
 pdp=   6.0934f

          ***** job concluded
 **info** dc convergence successful at Newton-Raphson method 

   *** parameter size =    1.710E-06 ***

 ******
 **testbench**

 ****** transient analysis tnom=  25.000 temp=  25.000 ******
 rising_delay= 627.7802p  targ= 801.2278n   trig= 800.6000n
 falling_delay= 675.0623p  targ= 902.1751n   trig= 901.5000n
 delay_avg= 651.4212p
 power=  -9.3225u  from= 100.0000p     to=   2.0000u
 pdp=   6.0729f

          ***** job concluded
 **info** dc convergence successful at Newton-Raphson method 

   *** parameter size =    1.720E-06 ***

 ******
 **testbench**

 ****** transient analysis tnom=  25.000 temp=  25.000 ******
 rising_delay= 626.7643p  targ= 801.2268n   trig= 800.6000n
 falling_delay= 742.8460p  targ= 902.2428n   trig= 901.5000n
 delay_avg= 684.8052p
 power=  -9.3077u  from= 100.0000p     to=   2.0000u
 pdp=   6.3740f

          ***** job concluded
 **info** dc convergence successful at Newton-Raphson method 

   *** parameter size =    1.730E-06 ***

 ******
 **testbench**

 ****** transient analysis tnom=  25.000 temp=  25.000 ******
 rising_delay= 622.6138p  targ= 801.2226n   trig= 800.6000n
 falling_delay= 672.6004p  targ= 902.1726n   trig= 901.5000n
 delay_avg= 647.6071p
 power=  -9.2692u  from= 100.0000p     to=   2.0000u
 pdp=   6.0028f

          ***** job concluded
 **info** dc convergence successful at Newton-Raphson method 

   *** parameter size =    1.740E-06 ***

 ******
 **testbench**

 ****** transient analysis tnom=  25.000 temp=  25.000 ******
 rising_delay= 620.8023p  targ= 801.2208n   trig= 800.6000n
 falling_delay= 736.7077p  targ= 902.2367n   trig= 901.5000n
 delay_avg= 678.7550p
 power=  -9.3125u  from= 100.0000p     to=   2.0000u
 pdp=   6.3209f

          ***** job concluded
 **info** dc convergence successful at Newton-Raphson method 

   *** parameter size =    1.750E-06 ***

 ******
 **testbench**

 ****** transient analysis tnom=  25.000 temp=  25.000 ******
 rising_delay= 615.3650p  targ= 801.2154n   trig= 800.6000n
 falling_delay= 670.0498p  targ= 902.1700n   trig= 901.5000n
 delay_avg= 642.7074p
 power=  -9.2727u  from= 100.0000p     to=   2.0000u
 pdp=   5.9596f

          ***** job concluded
 **info** dc convergence successful at Newton-Raphson method 

   *** parameter size =    1.760E-06 ***

 ******
 **testbench**

 ****** transient analysis tnom=  25.000 temp=  25.000 ******
 rising_delay= 612.1662p  targ= 801.2122n   trig= 800.6000n
 falling_delay= 664.3110p  targ= 902.1643n   trig= 901.5000n
 delay_avg= 638.2386p
 power=  -9.2331u  from= 100.0000p     to=   2.0000u
 pdp=   5.8929f

          ***** job concluded
 **info** dc convergence successful at Newton-Raphson method 

   *** parameter size =    1.770E-06 ***

 ******
 **testbench**

 ****** transient analysis tnom=  25.000 temp=  25.000 ******
 rising_delay= 611.4874p  targ= 801.2115n   trig= 800.6000n
 falling_delay= 662.2219p  targ= 902.1622n   trig= 901.5000n
 delay_avg= 636.8547p
 power=  -9.2271u  from= 100.0000p     to=   2.0000u
 pdp=   5.8763f

          ***** job concluded
 **info** dc convergence successful at Newton-Raphson method 

   *** parameter size =    1.780E-06 ***

 ******
 **testbench**

 ****** transient analysis tnom=  25.000 temp=  25.000 ******
 rising_delay= 608.7586p  targ= 801.2088n   trig= 800.6000n
 falling_delay= 729.4872p  targ= 902.2295n   trig= 901.5000n
 delay_avg= 669.1229p
 power=  -9.2631u  from= 100.0000p     to=   2.0000u
 pdp=   6.1982f

          ***** job concluded
 **info** dc convergence successful at Newton-Raphson method 

   *** parameter size =    1.790E-06 ***

 ******
 **testbench**

 ****** transient analysis tnom=  25.000 temp=  25.000 ******
 rising_delay= 604.5612p  targ= 801.2046n   trig= 800.6000n
 falling_delay= 730.1870p  targ= 902.2302n   trig= 901.5000n
 delay_avg= 667.3741p
 power=  -9.3140u  from= 100.0000p     to=   2.0000u
 pdp=   6.2159f

          ***** job concluded
 **info** dc convergence successful at Newton-Raphson method 

   *** parameter size =    1.800E-06 ***

 ******
 **testbench**

 ****** transient analysis tnom=  25.000 temp=  25.000 ******
 rising_delay= 603.1295p  targ= 801.2031n   trig= 800.6000n
 falling_delay= 653.2147p  targ= 902.1532n   trig= 901.5000n
 delay_avg= 628.1721p
 power=  -9.3187u  from= 100.0000p     to=   2.0000u
 pdp=   5.8537f

          ***** job concluded
 **info** dc convergence successful at Newton-Raphson method 

   *** parameter size =    1.810E-06 ***

 ******
 **testbench**

 ****** transient analysis tnom=  25.000 temp=  25.000 ******
 rising_delay= 600.5020p  targ= 801.2005n   trig= 800.6000n
 falling_delay= 724.7639p  targ= 902.2248n   trig= 901.5000n
 delay_avg= 662.6329p
 power=  -9.3590u  from= 100.0000p     to=   2.0000u
 pdp=   6.2016f

          ***** job concluded
 **info** dc convergence successful at Newton-Raphson method 

   *** parameter size =    1.820E-06 ***

 ******
 **testbench**

 ****** transient analysis tnom=  25.000 temp=  25.000 ******
 rising_delay= 595.8749p  targ= 801.1959n   trig= 800.6000n
 falling_delay= 652.3017p  targ= 902.1523n   trig= 901.5000n
 delay_avg= 624.0883p
 power=  -9.3171u  from= 100.0000p     to=   2.0000u
 pdp=   5.8147f

          ***** job concluded
 **info** dc convergence successful at Newton-Raphson method 

   *** parameter size =    1.830E-06 ***

 ******
 **testbench**

 ****** transient analysis tnom=  25.000 temp=  25.000 ******
 rising_delay= 593.0703p  targ= 801.1931n   trig= 800.6000n
 falling_delay= 651.7263p  targ= 902.1517n   trig= 901.5000n
 delay_avg= 622.3983p
 power=  -9.2795u  from= 100.0000p     to=   2.0000u
 pdp=   5.7756f

          ***** job concluded
 **info** dc convergence successful at Newton-Raphson method 

   *** parameter size =    1.840E-06 ***

 ******
 **testbench**

 ****** transient analysis tnom=  25.000 temp=  25.000 ******
 rising_delay= 591.2212p  targ= 801.1912n   trig= 800.6000n
 falling_delay= 651.7528p  targ= 902.1518n   trig= 901.5000n
 delay_avg= 621.4870p
 power=  -9.2800u  from= 100.0000p     to=   2.0000u
 pdp=   5.7674f

          ***** job concluded
 **info** dc convergence successful at Newton-Raphson method 

   *** parameter size =    1.850E-06 ***

 ******
 **testbench**

 ****** transient analysis tnom=  25.000 temp=  25.000 ******
 rising_delay= 588.1101p  targ= 801.1881n   trig= 800.6000n
 falling_delay= 647.1916p  targ= 902.1472n   trig= 901.5000n
 delay_avg= 617.6508p
 power=  -9.3604u  from= 100.0000p     to=   2.0000u
 pdp=   5.7815f

          ***** job concluded
 **info** dc convergence successful at Newton-Raphson method 

   *** parameter size =    1.860E-06 ***

 ******
 **testbench**

 ****** transient analysis tnom=  25.000 temp=  25.000 ******
 rising_delay= 585.8411p  targ= 801.1858n   trig= 800.6000n
 falling_delay= 648.2044p  targ= 902.1482n   trig= 901.5000n
 delay_avg= 617.0227p
 power=  -9.3211u  from= 100.0000p     to=   2.0000u
 pdp=   5.7513f

          ***** job concluded
 **info** dc convergence successful at Newton-Raphson method 

   *** parameter size =    1.870E-06 ***

 ******
 **testbench**

 ****** transient analysis tnom=  25.000 temp=  25.000 ******
 rising_delay= 583.1555p  targ= 801.1832n   trig= 800.6000n
 falling_delay= 710.6640p  targ= 902.2107n   trig= 901.5000n
 delay_avg= 646.9098p
 power=  -9.3137u  from= 100.0000p     to=   2.0000u
 pdp=   6.0251f

          ***** job concluded
 **info** dc convergence successful at Newton-Raphson method 

   *** parameter size =    1.880E-06 ***

 ******
 **testbench**

 ****** transient analysis tnom=  25.000 temp=  25.000 ******
 rising_delay= 580.2991p  targ= 801.1803n   trig= 800.6000n
 falling_delay= 643.2786p  targ= 902.1433n   trig= 901.5000n
 delay_avg= 611.7888p
 power=  -9.2932u  from= 100.0000p     to=   2.0000u
 pdp=   5.6854f

          ***** job concluded
 **info** dc convergence successful at Newton-Raphson method 

   *** parameter size =    1.890E-06 ***

 ******
 **testbench**

 ****** transient analysis tnom=  25.000 temp=  25.000 ******
 rising_delay= 577.7884p  targ= 801.1778n   trig= 800.6000n
 falling_delay= 641.4638p  targ= 902.1415n   trig= 901.5000n
 delay_avg= 609.6261p
 power=  -9.3058u  from= 100.0000p     to=   2.0000u
 pdp=   5.6731f

          ***** job concluded
 **info** dc convergence successful at Newton-Raphson method 

   *** parameter size =    1.900E-06 ***

 ******
 **testbench**

 ****** transient analysis tnom=  25.000 temp=  25.000 ******
 rising_delay= 575.3270p  targ= 801.1753n   trig= 800.6000n
 falling_delay= 639.6414p  targ= 902.1396n   trig= 901.5000n
 delay_avg= 607.4842p
 power=  -9.3046u  from= 100.0000p     to=   2.0000u
 pdp=   5.6524f

          ***** job concluded
 **info** dc convergence successful at Newton-Raphson method 

   *** parameter size =    1.910E-06 ***

 ******
 **testbench**

 ****** transient analysis tnom=  25.000 temp=  25.000 ******
 rising_delay= 573.5584p  targ= 801.1736n   trig= 800.6000n
 falling_delay= 636.3261p  targ= 902.1363n   trig= 901.5000n
 delay_avg= 604.9422p
 power=  -9.3183u  from= 100.0000p     to=   2.0000u
 pdp=   5.6370f

          ***** job concluded
 **info** dc convergence successful at Newton-Raphson method 

   *** parameter size =    1.920E-06 ***

 ******
 **testbench**

 ****** transient analysis tnom=  25.000 temp=  25.000 ******
 rising_delay= 570.2885p  targ= 801.1703n   trig= 800.6000n
 falling_delay= 636.3932p  targ= 902.1364n   trig= 901.5000n
 delay_avg= 603.3408p
 power=  -9.2723u  from= 100.0000p     to=   2.0000u
 pdp=   5.5944f

          ***** job concluded
 **info** dc convergence successful at Newton-Raphson method 

   *** parameter size =    1.930E-06 ***

 ******
 **testbench**

 ****** transient analysis tnom=  25.000 temp=  25.000 ******
 rising_delay= 567.6495p  targ= 801.1676n   trig= 800.6000n
 falling_delay= 636.1217p  targ= 902.1361n   trig= 901.5000n
 delay_avg= 601.8856p
 power=  -9.2963u  from= 100.0000p     to=   2.0000u
 pdp=   5.5953f

          ***** job concluded
 **info** dc convergence successful at Newton-Raphson method 

   *** parameter size =    1.940E-06 ***

 ******
 **testbench**

 ****** transient analysis tnom=  25.000 temp=  25.000 ******
 rising_delay= 565.8894p  targ= 801.1659n   trig= 800.6000n
 falling_delay= 633.7984p  targ= 902.1338n   trig= 901.5000n
 delay_avg= 599.8439p
 power=  -9.2702u  from= 100.0000p     to=   2.0000u
 pdp=   5.5606f

          ***** job concluded
 **info** dc convergence successful at Newton-Raphson method 

   *** parameter size =    1.950E-06 ***

 ******
 **testbench**

 ****** transient analysis tnom=  25.000 temp=  25.000 ******
 rising_delay= 562.7696p  targ= 801.1628n   trig= 800.6000n
 falling_delay= 630.4623p  targ= 902.1305n   trig= 901.5000n
 delay_avg= 596.6160p
 power=  -9.2819u  from= 100.0000p     to=   2.0000u
 pdp=   5.5377f

          ***** job concluded
 **info** dc convergence successful at Newton-Raphson method 

   *** parameter size =    1.960E-06 ***

 ******
 **testbench**

 ****** transient analysis tnom=  25.000 temp=  25.000 ******
 rising_delay= 559.9436p  targ= 801.1599n   trig= 800.6000n
 falling_delay= 630.5432p  targ= 902.1305n   trig= 901.5000n
 delay_avg= 595.2434p
 power=  -9.3069u  from= 100.0000p     to=   2.0000u
 pdp=   5.5399f

          ***** job concluded
 **info** dc convergence successful at Newton-Raphson method 

   *** parameter size =    1.970E-06 ***

 ******
 **testbench**

 ****** transient analysis tnom=  25.000 temp=  25.000 ******
 rising_delay= 558.3950p  targ= 801.1584n   trig= 800.6000n
 falling_delay= 628.8741p  targ= 902.1289n   trig= 901.5000n
 delay_avg= 593.6345p
 power=  -9.2872u  from= 100.0000p     to=   2.0000u
 pdp=   5.5132f

          ***** job concluded
 **info** dc convergence successful at Newton-Raphson method 

   *** parameter size =    1.980E-06 ***

 ******
 **testbench**

 ****** transient analysis tnom=  25.000 temp=  25.000 ******
 rising_delay= 556.7737p  targ= 801.1568n   trig= 800.6000n
 falling_delay= 627.1420p  targ= 902.1271n   trig= 901.5000n
 delay_avg= 591.9578p
 power=  -9.2757u  from= 100.0000p     to=   2.0000u
 pdp=   5.4908f

          ***** job concluded
 **info** dc convergence successful at Newton-Raphson method 

   *** parameter size =    1.990E-06 ***

 ******
 **testbench**

 ****** transient analysis tnom=  25.000 temp=  25.000 ******
 rising_delay= 554.4354p  targ= 801.1544n   trig= 800.6000n
 falling_delay= 625.0255p  targ= 902.1250n   trig= 901.5000n
 delay_avg= 589.7304p
 power=  -9.2767u  from= 100.0000p     to=   2.0000u
 pdp=   5.4707f

          ***** job concluded
 **info** dc convergence successful at Newton-Raphson method 

   *** parameter size =    2.000E-06 ***

 ******
 **testbench**

 ****** transient analysis tnom=  25.000 temp=  25.000 ******
 rising_delay= 550.7029p  targ= 801.1507n   trig= 800.6000n
 falling_delay= 623.6173p  targ= 902.1236n   trig= 901.5000n
 delay_avg= 587.1601p
 power=  -9.3037u  from= 100.0000p     to=   2.0000u
 pdp=   5.4628f

          ***** job concluded
 **info** dc convergence successful at Newton-Raphson method 

   *** parameter size =    2.010E-06 ***

 ******
 **testbench**

 ****** transient analysis tnom=  25.000 temp=  25.000 ******
 rising_delay= 549.2825p  targ= 801.1493n   trig= 800.6000n
 falling_delay= 688.0834p  targ= 902.1881n   trig= 901.5000n
 delay_avg= 618.6830p
 power=  -9.3580u  from= 100.0000p     to=   2.0000u
 pdp=   5.7896f

          ***** job concluded
 **info** dc convergence successful at Newton-Raphson method 

   *** parameter size =    2.020E-06 ***

 ******
 **testbench**

 ****** transient analysis tnom=  25.000 temp=  25.000 ******
 rising_delay= 547.8457p  targ= 801.1478n   trig= 800.6000n
 falling_delay= 620.2219p  targ= 902.1202n   trig= 901.5000n
 delay_avg= 584.0338p
 power=  -9.2908u  from= 100.0000p     to=   2.0000u
 pdp=   5.4261f

          ***** job concluded
 **info** dc convergence successful at Newton-Raphson method 

   *** parameter size =    2.030E-06 ***

 ******
 **testbench**

 ****** transient analysis tnom=  25.000 temp=  25.000 ******
 rising_delay= 550.1739p  targ= 801.1502n   trig= 800.6000n
 falling_delay= 619.3923p  targ= 902.1194n   trig= 901.5000n
 delay_avg= 584.7831p
 power=  -9.2964u  from= 100.0000p     to=   2.0000u
 pdp=   5.4364f

          ***** job concluded
 **info** dc convergence successful at Newton-Raphson method 

   *** parameter size =    2.040E-06 ***

 ******
 **testbench**

 ****** transient analysis tnom=  25.000 temp=  25.000 ******
[...]
 **testbench**

 ****** transient analysis tnom=  25.000 temp=  25.000 ******
 rising_delay= 313.2092p  targ= 800.9132n   trig= 800.6000n
 falling_delay= 553.6884p  targ= 902.0537n   trig= 901.5000n
 delay_avg= 433.4488p
 power= -15.9993u  from= 100.0000p     to=   2.0000u
 pdp=   6.9349f

          ***** job concluded
 **info** dc convergence successful at Newton-Raphson method 

   *** parameter size =    1.960E-05 ***

 ******
 **testbench**

 ****** transient analysis tnom=  25.000 temp=  25.000 ******
 rising_delay= 313.1077p  targ= 800.9131n   trig= 800.6000n
 falling_delay= 554.5514p  targ= 902.0546n   trig= 901.5000n
 delay_avg= 433.8296p
 power= -16.0021u  from= 100.0000p     to=   2.0000u
 pdp=   6.9422f

          ***** job concluded
 **info** dc convergence successful at Newton-Raphson method 

   *** parameter size =    1.961E-05 ***

 ******
 **testbench**

 ****** transient analysis tnom=  25.000 temp=  25.000 ******
 rising_delay= 311.9237p  targ= 800.9119n   trig= 800.6000n
 falling_delay= 556.3801p  targ= 902.0564n   trig= 901.5000n
 delay_avg= 434.1519p
 power= -16.0114u  from= 100.0000p     to=   2.0000u
 pdp=   6.9514f

          ***** job concluded
 **info** dc convergence successful at Newton-Raphson method 

   *** parameter size =    1.962E-05 ***

 ******
 **testbench**

 ****** transient analysis tnom=  25.000 temp=  25.000 ******
 rising_delay= 312.2719p  targ= 800.9123n   trig= 800.6000n
 falling_delay= 556.3786p  targ= 902.0564n   trig= 901.5000n
 delay_avg= 434.3252p
 power= -16.0154u  from= 100.0000p     to=   2.0000u
 pdp=   6.9559f

          ***** job concluded
 **info** dc convergence successful at Newton-Raphson method 

   *** parameter size =    1.963E-05 ***

 ******
 **testbench**

 ****** transient analysis tnom=  25.000 temp=  25.000 ******
 rising_delay= 312.2192p  targ= 800.9122n   trig= 800.6000n
 falling_delay= 556.5027p  targ= 902.0565n   trig= 901.5000n
 delay_avg= 434.3609p
 power= -16.0131u  from= 100.0000p     to=   2.0000u
 pdp=   6.9555f

          ***** job concluded
 **info** dc convergence successful at Newton-Raphson method 

   *** parameter size =    1.964E-05 ***

 ******
 **testbench**

 ****** transient analysis tnom=  25.000 temp=  25.000 ******
 rising_delay= 312.7546p  targ= 800.9128n   trig= 800.6000n
 falling_delay= 555.5209p  targ= 902.0555n   trig= 901.5000n
 delay_avg= 434.1377p
 power= -16.0192u  from= 100.0000p     to=   2.0000u
 pdp=   6.9545f

          ***** job concluded
 **info** dc convergence successful at Newton-Raphson method 

   *** parameter size =    1.965E-05 ***

 ******
 **testbench**

 ****** transient analysis tnom=  25.000 temp=  25.000 ******
 rising_delay= 313.7208p  targ= 800.9137n   trig= 800.6000n
 falling_delay= 556.8024p  targ= 902.0568n   trig= 901.5000n
 delay_avg= 435.2616p
 power= -16.0501u  from= 100.0000p     to=   2.0000u
 pdp=   6.9860f

          ***** job concluded
 **info** dc convergence successful at Newton-Raphson method 

   *** parameter size =    1.966E-05 ***

 ******
 **testbench**

 ****** transient analysis tnom=  25.000 temp=  25.000 ******
 rising_delay= 311.8341p  targ= 800.9118n   trig= 800.6000n
 falling_delay= 557.6522p  targ= 902.0577n   trig= 901.5000n
 delay_avg= 434.7431p
 power= -16.0300u  from= 100.0000p     to=   2.0000u
 pdp=   6.9689f

          ***** job concluded
 **info** dc convergence successful at Newton-Raphson method 

   *** parameter size =    1.967E-05 ***

 ******
 **testbench**

 ****** transient analysis tnom=  25.000 temp=  25.000 ******
 rising_delay= 314.6247p  targ= 800.9146n   trig= 800.6000n
 falling_delay= 556.3374p  targ= 902.0563n   trig= 901.5000n
 delay_avg= 435.4811p
 power= -15.9398u  from= 100.0000p     to=   2.0000u
 pdp=   6.9415f

          ***** job concluded
 **info** dc convergence successful at Newton-Raphson method 

   *** parameter size =    1.968E-05 ***

 ******
 **testbench**

 ****** transient analysis tnom=  25.000 temp=  25.000 ******
 rising_delay= 313.5001p  targ= 800.9135n   trig= 800.6000n
 falling_delay= 556.9887p  targ= 902.0570n   trig= 901.5000n
 delay_avg= 435.2444p
 power= -15.9346u  from= 100.0000p     to=   2.0000u
 pdp=   6.9355f

          ***** job concluded
 **info** dc convergence successful at Newton-Raphson method 

   *** parameter size =    1.969E-05 ***

 ******
 **testbench**

 ****** transient analysis tnom=  25.000 temp=  25.000 ******
 rising_delay= 313.9797p  targ= 800.9140n   trig= 800.6000n
 falling_delay= 555.8189p  targ= 902.0558n   trig= 901.5000n
 delay_avg= 434.8993p
 power= -16.0346u  from= 100.0000p     to=   2.0000u
 pdp=   6.9734f

          ***** job concluded
 **info** dc convergence successful at Newton-Raphson method 

   *** parameter size =    1.970E-05 ***

 ******
 **testbench**

 ****** transient analysis tnom=  25.000 temp=  25.000 ******
 rising_delay= 314.1512p  targ= 800.9142n   trig= 800.6000n
 falling_delay= 556.8772p  targ= 902.0569n   trig= 901.5000n
 delay_avg= 435.5142p
 power= -16.0545u  from= 100.0000p     to=   2.0000u
 pdp=   6.9920f

          ***** job concluded
 **info** dc convergence successful at Newton-Raphson method 

   *** parameter size =    1.971E-05 ***

 ******
 **testbench**

 ****** transient analysis tnom=  25.000 temp=  25.000 ******
 rising_delay= 313.9999p  targ= 800.9140n   trig= 800.6000n
 falling_delay= 555.6763p  targ= 902.0557n   trig= 901.5000n
 delay_avg= 434.8381p
 power= -16.0421u  from= 100.0000p     to=   2.0000u
 pdp=   6.9757f

          ***** job concluded
 **info** dc convergence successful at Newton-Raphson method 

   *** parameter size =    1.972E-05 ***

 ******
 **testbench**

 ****** transient analysis tnom=  25.000 temp=  25.000 ******
 rising_delay= 314.2332p  targ= 800.9142n   trig= 800.6000n
 falling_delay= 556.8117p  targ= 902.0568n   trig= 901.5000n
 delay_avg= 435.5224p
 power= -16.0505u  from= 100.0000p     to=   2.0000u
 pdp=   6.9903f

          ***** job concluded
 **info** dc convergence successful at Newton-Raphson method 

   *** parameter size =    1.973E-05 ***

 ******
 **testbench**

 ****** transient analysis tnom=  25.000 temp=  25.000 ******
 rising_delay= 315.6325p  targ= 800.9156n   trig= 800.6000n
 falling_delay= 555.1200p  targ= 902.0551n   trig= 901.5000n
 delay_avg= 435.3762p
 power= -16.0955u  from= 100.0000p     to=   2.0000u
 pdp=   7.0076f

          ***** job concluded
 **info** dc convergence successful at Newton-Raphson method 

   *** parameter size =    1.974E-05 ***

 ******
 **testbench**

 ****** transient analysis tnom=  25.000 temp=  25.000 ******
 rising_delay= 314.0116p  targ= 800.9140n   trig= 800.6000n
 falling_delay= 555.7151p  targ= 902.0557n   trig= 901.5000n
 delay_avg= 434.8634p
 power= -16.0570u  from= 100.0000p     to=   2.0000u
 pdp=   6.9826f

          ***** job concluded
 **info** dc convergence successful at Newton-Raphson method 

   *** parameter size =    1.975E-05 ***

 ******
 **testbench**

 ****** transient analysis tnom=  25.000 temp=  25.000 ******
 rising_delay= 314.2362p  targ= 800.9142n   trig= 800.6000n
 falling_delay= 555.4280p  targ= 902.0554n   trig= 901.5000n
 delay_avg= 434.8321p
 power= -16.0651u  from= 100.0000p     to=   2.0000u
 pdp=   6.9856f

          ***** job concluded
 **info** dc convergence successful at Newton-Raphson method 

   *** parameter size =    1.976E-05 ***

 ******
 **testbench**

 ****** transient analysis tnom=  25.000 temp=  25.000 ******
 rising_delay= 314.2525p  targ= 800.9143n   trig= 800.6000n
 falling_delay= 555.0822p  targ= 902.0551n   trig= 901.5000n
 delay_avg= 434.6673p
 power= -16.1186u  from= 100.0000p     to=   2.0000u
 pdp=   7.0062f

          ***** job concluded
 **info** dc convergence successful at Newton-Raphson method 

   *** parameter size =    1.977E-05 ***

 ******
 **testbench**

 ****** transient analysis tnom=  25.000 temp=  25.000 ******
 rising_delay= 314.0979p  targ= 800.9141n   trig= 800.6000n
 falling_delay= 556.0326p  targ= 902.0560n   trig= 901.5000n
 delay_avg= 435.0652p
 power= -16.0646u  from= 100.0000p     to=   2.0000u
 pdp=   6.9892f

          ***** job concluded
 **info** dc convergence successful at Newton-Raphson method 

   *** parameter size =    1.978E-05 ***

 ******
 **testbench**

 ****** transient analysis tnom=  25.000 temp=  25.000 ******
 rising_delay= 313.7610p  targ= 800.9138n   trig= 800.6000n
 falling_delay= 556.5095p  targ= 902.0565n   trig= 901.5000n
 delay_avg= 435.1353p
 power= -16.0694u  from= 100.0000p     to=   2.0000u
 pdp=   6.9924f

          ***** job concluded
 **info** dc convergence successful at Newton-Raphson method 

   *** parameter size =    1.979E-05 ***

 ******
 **testbench**

 ****** transient analysis tnom=  25.000 temp=  25.000 ******
 rising_delay= 313.8960p  targ= 800.9139n   trig= 800.6000n
 falling_delay= 556.5004p  targ= 902.0565n   trig= 901.5000n
 delay_avg= 435.1982p
 power= -16.0744u  from= 100.0000p     to=   2.0000u
 pdp=   6.9956f

          ***** job concluded
 **info** dc convergence successful at Newton-Raphson method 

   *** parameter size =    1.980E-05 ***

 ******
 **testbench**

 ****** transient analysis tnom=  25.000 temp=  25.000 ******
 rising_delay= 316.3906p  targ= 800.9164n   trig= 800.6000n
 falling_delay= 557.9750p  targ= 902.0580n   trig= 901.5000n
 delay_avg= 437.1828p
 power= -16.0946u  from= 100.0000p     to=   2.0000u
 pdp=   7.0363f

          ***** job concluded
 **info** dc convergence successful at Newton-Raphson method 

   *** parameter size =    1.981E-05 ***

 ******
 **testbench**

 ****** transient analysis tnom=  25.000 temp=  25.000 ******
 rising_delay= 312.4884p  targ= 800.9125n   trig= 800.6000n
 falling_delay= 558.3024p  targ= 902.0583n   trig= 901.5000n
 delay_avg= 435.3954p
 power= -15.7532u  from= 100.0000p     to=   2.0000u
 pdp=   6.8589f

          ***** job concluded
 **info** dc convergence successful at Newton-Raphson method 

   *** parameter size =    1.982E-05 ***

 ******
 **testbench**

 ****** transient analysis tnom=  25.000 temp=  25.000 ******
 rising_delay= 316.5282p  targ= 800.9165n   trig= 800.6000n
 falling_delay= 557.7934p  targ= 902.0578n   trig= 901.5000n
 delay_avg= 437.1608p
 power= -15.2071u  from= 100.0000p     to=   2.0000u
 pdp=   6.6480f

          ***** job concluded
 **info** dc convergence successful at Newton-Raphson method 

   *** parameter size =    1.983E-05 ***

 ******
 **testbench**

 ****** transient analysis tnom=  25.000 temp=  25.000 ******
 rising_delay= 314.5093p  targ= 800.9145n   trig= 800.6000n
 falling_delay= 556.5431p  targ= 902.0565n   trig= 901.5000n
 delay_avg= 435.5262p
 power= -15.9536u  from= 100.0000p     to=   2.0000u
 pdp=   6.9482f

          ***** job concluded
 **info** dc convergence successful at Newton-Raphson method 

   *** parameter size =    1.984E-05 ***

 ******
 **testbench**

 ****** transient analysis tnom=  25.000 temp=  25.000 ******
 rising_delay= 315.9811p  targ= 800.9160n   trig= 800.6000n
 falling_delay= 558.2282p  targ= 902.0582n   trig= 901.5000n
 delay_avg= 437.1047p
 power= -15.8816u  from= 100.0000p     to=   2.0000u
 pdp=   6.9419f

          ***** job concluded
 **info** dc convergence successful at Newton-Raphson method 

   *** parameter size =    1.985E-05 ***

 ******
 **testbench**

 ****** transient analysis tnom=  25.000 temp=  25.000 ******
 rising_delay= 314.7548p  targ= 800.9148n   trig= 800.6000n
 falling_delay= 556.2892p  targ= 902.0563n   trig= 901.5000n
 delay_avg= 435.5220p
 power= -15.6192u  from= 100.0000p     to=   2.0000u
 pdp=   6.8025f

          ***** job concluded
 **info** dc convergence successful at Newton-Raphson method 

   *** parameter size =    1.986E-05 ***

 ******
 **testbench**

 ****** transient analysis tnom=  25.000 temp=  25.000 ******
 rising_delay= 314.5179p  targ= 800.9145n   trig= 800.6000n
 falling_delay= 557.9164p  targ= 902.0579n   trig= 901.5000n
 delay_avg= 436.2172p
 power= -15.7769u  from= 100.0000p     to=   2.0000u
 pdp=   6.8822f

          ***** job concluded
 **info** dc convergence successful at Newton-Raphson method 

   *** parameter size =    1.987E-05 ***

 ******
 **testbench**

 ****** transient analysis tnom=  25.000 temp=  25.000 ******
 rising_delay= 316.5402p  targ= 800.9165n   trig= 800.6000n
 falling_delay= 557.3171p  targ= 902.0573n   trig= 901.5000n
 delay_avg= 436.9286p
 power= -15.7605u  from= 100.0000p     to=   2.0000u
 pdp=   6.8862f

          ***** job concluded
 **info** dc convergence successful at Newton-Raphson method 

   *** parameter size =    1.988E-05 ***

 ******
 **testbench**

 ****** transient analysis tnom=  25.000 temp=  25.000 ******
 rising_delay= 310.6190p  targ= 800.9106n   trig= 800.6000n
 falling_delay= 559.5940p  targ= 902.0596n   trig= 901.5000n
 delay_avg= 435.1065p
 power= -15.7199u  from= 100.0000p     to=   2.0000u
 pdp=   6.8398f

          ***** job concluded
 **info** dc convergence successful at Newton-Raphson method 

   *** parameter size =    1.989E-05 ***

 ******
 **testbench**

 ****** transient analysis tnom=  25.000 temp=  25.000 ******
 rising_delay= 315.7156p  targ= 800.9157n   trig= 800.6000n
 falling_delay= 558.8030p  targ= 902.0588n   trig= 901.5000n
 delay_avg= 437.2593p
 power= -15.9026u  from= 100.0000p     to=   2.0000u
 pdp=   6.9536f

          ***** job concluded
 **info** dc convergence successful at Newton-Raphson method 

   *** parameter size =    1.990E-05 ***

 ******
 **testbench**

 ****** transient analysis tnom=  25.000 temp=  25.000 ******
 rising_delay= 317.2462p  targ= 800.9172n   trig= 800.6000n
 falling_delay= 557.5269p  targ= 902.0575n   trig= 901.5000n
 delay_avg= 437.3865p
 power= -16.0886u  from= 100.0000p     to=   2.0000u
 pdp=   7.0369f

          ***** job concluded
 **info** dc convergence successful at Newton-Raphson method 

   *** parameter size =    1.991E-05 ***

 ******
 **testbench**

 ****** transient analysis tnom=  25.000 temp=  25.000 ******
 rising_delay= 314.6595p  targ= 800.9147n   trig= 800.6000n
 falling_delay= 557.4823p  targ= 902.0575n   trig= 901.5000n
 delay_avg= 436.0709p
 power= -15.7362u  from= 100.0000p     to=   2.0000u
 pdp=   6.8621f

          ***** job concluded
 **info** dc convergence successful at Newton-Raphson method 

   *** parameter size =    1.992E-05 ***

 ******
 **testbench**

 ****** transient analysis tnom=  25.000 temp=  25.000 ******
 rising_delay= 316.4894p  targ= 800.9165n   trig= 800.6000n
 falling_delay= 558.5986p  targ= 902.0586n   trig= 901.5000n
 delay_avg= 437.5440p
 power= -15.9145u  from= 100.0000p     to=   2.0000u
 pdp=   6.9633f

          ***** job concluded
 **info** dc convergence successful at Newton-Raphson method 

   *** parameter size =    1.993E-05 ***

 ******
 **testbench**

 ****** transient analysis tnom=  25.000 temp=  25.000 ******
 rising_delay= 312.5878p  targ= 800.9126n   trig= 800.6000n
 falling_delay= 558.4839p  targ= 902.0585n   trig= 901.5000n
 delay_avg= 435.5358p
 power= -15.6097u  from= 100.0000p     to=   2.0000u
 pdp=   6.7986f

          ***** job concluded
 **info** dc convergence successful at Newton-Raphson method 

   *** parameter size =    1.994E-05 ***

 ******
 **testbench**

 ****** transient analysis tnom=  25.000 temp=  25.000 ******
 rising_delay= 316.5886p  targ= 800.9166n   trig= 800.6000n
 falling_delay= 559.1243p  targ= 902.0591n   trig= 901.5000n
 delay_avg= 437.8565p
 power= -16.1816u  from= 100.0000p     to=   2.0000u
 pdp=   7.0852f

          ***** job concluded
 **info** dc convergence successful at Newton-Raphson method 

   *** parameter size =    1.995E-05 ***

 ******
 **testbench**

 ****** transient analysis tnom=  25.000 temp=  25.000 ******
 rising_delay= 316.9118p  targ= 800.9169n   trig= 800.6000n
 falling_delay= 557.8659p  targ= 902.0579n   trig= 901.5000n
 delay_avg= 437.3888p
 power= -16.0079u  from= 100.0000p     to=   2.0000u
 pdp=   7.0017f

          ***** job concluded
 **info** dc convergence successful at Newton-Raphson method 

   *** parameter size =    1.996E-05 ***

 ******
 **testbench**

 ****** transient analysis tnom=  25.000 temp=  25.000 ******
 rising_delay= 316.2079p  targ= 800.9162n   trig= 800.6000n
 falling_delay= 559.0639p  targ= 902.0591n   trig= 901.5000n
 delay_avg= 437.6359p
 power= -15.8333u  from= 100.0000p     to=   2.0000u
 pdp=   6.9292f

          ***** job concluded
 **info** dc convergence successful at Newton-Raphson method 

   *** parameter size =    1.997E-05 ***

 ******
 **testbench**

 ****** transient analysis tnom=  25.000 temp=  25.000 ******
 rising_delay= 316.7522p  targ= 800.9168n   trig= 800.6000n
 falling_delay= 559.0962p  targ= 902.0591n   trig= 901.5000n
 delay_avg= 437.9242p
 power= -16.1296u  from= 100.0000p     to=   2.0000u
 pdp=   7.0635f

          ***** job concluded
 **info** dc convergence successful at Newton-Raphson method 

   *** parameter size =    1.998E-05 ***

 ******
 **testbench**

 ****** transient analysis tnom=  25.000 temp=  25.000 ******
 rising_delay= 317.4212p  targ= 800.9174n   trig= 800.6000n
 falling_delay= 559.1151p  targ= 902.0591n   trig= 901.5000n
 delay_avg= 438.2682p
 power= -16.1528u  from= 100.0000p     to=   2.0000u
 pdp=   7.0793f

          ***** job concluded
 **info** dc convergence successful at Newton-Raphson method 

   *** parameter size =    1.999E-05 ***

 ******
 **testbench**

 ****** transient analysis tnom=  25.000 temp=  25.000 ******
 rising_delay= 315.2848p  targ= 800.9153n   trig= 800.6000n
 falling_delay= 559.2348p  targ= 902.0592n   trig= 901.5000n
 delay_avg= 437.2598p
 power= -15.9865u  from= 100.0000p     to=   2.0000u
 pdp=   6.9902f

          ***** job concluded
 **info** dc convergence successful at Newton-Raphson method 

   *** parameter size =    2.000E-05 ***

 ******
 **testbench**

 ****** transient analysis tnom=  25.000 temp=  25.000 ******
 rising_delay= 315.2123p  targ= 800.9152n   trig= 800.6000n
 falling_delay= 559.2370p  targ= 902.0592n   trig= 901.5000n
 delay_avg= 437.2247p
 power= -16.1217u  from= 100.0000p     to=   2.0000u
 pdp=   7.0488f

          ***** job concluded
 ******  
 **testbench**

 ****** job statistics summary tnom=  25.000 temp=  25.000 ******
  
 ******  Machine Information  ******
 CPU:
 model name	: Intel(R) Core(TM) i7-3770 CPU @ 3.40GHz
 cpu MHz	: 3392.514
  
 OS:
 Linux version 2.6.32-642.el6.x86_64 (mockbuild@worker1.bsys.centos.org) (gcc version 4.4.7 20120313 (Red Hat 4.4.7-17) (GCC) ) #1 SMP Tue May 10 17:27:01 UTC 2016


  ******  HSPICE Threads Information  ******

  Command Line Threads Count :     1
  Available CPU Count        :     8
  Actual Threads Count       :     1


  ******  Circuit Statistics  ******
  # nodes       =      19 # elements   =      10
  # resistors   =       0 # capacitors =       1 # inductors   =       0
  # mutual_inds =       0 # vccs       =       0 # vcvs        =       0
  # cccs        =       0 # ccvs       =       0 # volt_srcs   =       3
  # curr_srcs   =       0 # diodes     =       0 # bjts        =       0
  # jfets       =       0 # mosfets    =       6 # U elements  =       0
  # T elements  =       0 # W elements =       0 # B elements  =       0
  # S elements  =       0 # P elements =       0 # va device   =       0
  # vector_srcs =       0 # N elements =       0


  ******  Runtime Statistics (seconds)  ******

  analysis           time    # points   tot. iter  conv.iter
  op point           0.82           1       43472
  transient        119.42 3.95200E+09     3653317     1442642 rev=     57186
  readin             0.02
  errchk             0.00
  setup              0.01
  output             0.08


           peak memory used        291.36 megabytes
           total cpu time          120.61 seconds
           total elapsed time      122.47 seconds
           job started at     21:12:26 05/11/2022
           job ended   at     21:14:28 05/11/2022


 lic: Release hspice token(s) 
 lic: total license checkout elapse time:        0.29(s)
