$DATA1 SOURCE='PrimeSim HSPICE' VERSION='R-2020.12-SP2 linux64' PARAM_COUNT=0
.TITLE '**testbench**'
 tdelay_rise      tdelay_fall      tdelay_avg       temper          
 alter#          
  4.387e-10        8.148e-10        6.268e-10         25.0000       
1               
